
---------- Begin Simulation Statistics ----------
host_inst_rate                                  32388                       # Simulator instruction rate (inst/s)
host_mem_usage                                 192928                       # Number of bytes of host memory used
host_seconds                                 24118.89                       # Real time elapsed on the host
host_tick_rate                                 298517                       # Simulator tick rate (ticks/s)
sim_freq                                   4000000000                       # Frequency of simulated ticks
sim_insts                                   781158668                       # Number of instructions simulated
sim_seconds                                  1.799973                       # Number of seconds simulated
sim_ticks                                  7199893257                       # Number of ticks simulated
system.cpu.COM:IPB                           3.124504                       # Committed instructions per branch
system.cpu.COM:IPC                           0.108496                       # Committed instructions per cycle
system.cpu.COM:branches                     250010432                       # Number of branches committed
system.cpu.COM:bw_lim_avg                <err: div-0>                       # Avg number not committed in cycles BW limited
system.cpu.COM:bw_lim_events                        0                       # number cycles where commit BW limit reached
system.cpu.COM:bw_lim_rate                     0.0000                       # Average number not committed due to BW (over all cycles)
system.cpu.COM:bw_lim_stdev_0_mean       <err: div-0>                       # standard deviation of bw_lim_avg value
system.cpu.COM:bw_lim_stdev_0_stdev      <err: div-0>                       # standard deviation of bw_lim_avg value
**Ignore: system.cpu.COM:bw_lim_stdev_0_TOT       0.0000                       # standard deviation of bw_lim_avg value
system.cpu.COM:bw_limited                           0                       # number of insts not committed due to BW limits
system.cpu.COM:committed_per_cycle.start_dist                     # Number of insts commited each cycle
system.cpu.COM:committed_per_cycle.samples    137873601                      
system.cpu.COM:committed_per_cycle.min_value            0                      
                               0       356928     25.89%           
                               1      6521455    473.00%           
                               2      6656054    482.76%           
                               3     15959840   1157.57%           
                               4     22993762   1667.74%           
                               5       754491     54.72%           
                               6     22290008   1616.70%           
                               7     14558766   1055.95%           
                               8     47782297   3465.66%           
system.cpu.COM:committed_per_cycle.max_value            8                      
system.cpu.COM:committed_per_cycle.end_dist

system.cpu.COM:count                        781158668                       # Number of instructions committed
system.cpu.COM:loads                         10485438                       # Number of loads committed
system.cpu.COM:membars                         267027                       # Number of memory barriers committed
system.cpu.COM:refs                          17903844                       # Number of memory references committed
system.cpu.COM:stores                         7418406                       # Number of stores committed
system.cpu.COM:swp_count                       211704                       # Number of s/w prefetches committed
system.cpu.DDQ:count                      21434235834                       # cum count of instructions
system.cpu.DDQ:rate                                 3                       # average number of instructions
system.cpu.DIS:chain_creation.start_dist
     Inst has no outstanding IDEPS            0      0.00%            # Reason that chain head was created
      IDEP chain reached max depth            0      0.00%            # Reason that chain head was created
                    Inst is a load            0      0.00%            # Reason that chain head was created
  Chain has multiple chained IDEPS            0      0.00%            # Reason that chain head was created
system.cpu.DIS:chain_creation.end_dist
system.cpu.DIS:chain_head_frac                      0                       # fraction of insts that are chain heads
system.cpu.DIS:chain_heads                          0                       # number insts that are chain heads
system.cpu.DIS:chains_insuf                         0                       # number of times thread had insuf chains
system.cpu.DIS:chains_insuf_rate                    0                       # rate that thread had insuf chains
system.cpu.DIS:count                        812324051                       # cumulative count of dispatched insts
system.cpu.DIS:insufficient_chains                  0                       # Number of instances where dispatch stopped
system.cpu.DIS:mod_n_stall_avg_free          no value                       # avg free slots per cycle
system.cpu.DIS:mod_n_stall_frac                     0                       # avg stalls per cycle
system.cpu.DIS:mod_n_stall_free                     0                       # free slots when dispatch stalled due to mod-n
system.cpu.DIS:mod_n_stalls                         0                       # cycles where dispatch stalled due to mod-n
system.cpu.DIS:one_rdy_insts                        0                       # number of 2-op insts w/ one rdy op
system.cpu.DIS:one_rdy_ratio                 no value                       # fraction of 2-op insts w/ one ready op
system.cpu.DIS:op_count                     837535463                       # number of operations dispatched
system.cpu.DIS:op_rate                       0.116326                       # dispatched operations per cycle
system.cpu.DIS:rate                          0.112824                       # dispatched_insts per cycle
system.cpu.DIS:second_choice_clust                  0                       # Number of instructions dispatched to second-choice cluster
system.cpu.DIS:second_choice_stall                  0                       # Number of instructions stalled when first choice not available
system.cpu.DIS:serialize_stall_cycles         7148610                       # count of cycles dispatch stalled for serializing inst
system.cpu.DIS:serializing_insts               464106                       # count of serializing insts dispatched
system.cpu.DIS:two_input_insts                      0                       # Number of two input instructions queued
system.cpu.DIS:two_input_ratio                      0                       # fraction of all insts having 2 inputs
system.cpu.FETCH:branch_count               266934688                       # Number of branches fetched
system.cpu.FETCH:branch_rate                 0.037075                       # Number of branch fetches per cycle
system.cpu.FETCH:chance_pct                         1                       # Percentage of all fetch chances
system.cpu.FETCH:chances                    145992410                       # Number of fetch opportunities
system.cpu.FETCH:choice                     145992410                       # Number of times we fetched from our first choice
system.cpu.FETCH:count                      896034769                       # Number of instructions fetched
system.cpu.FETCH:decisions                  145992410                       # number of times the fetch stage chose between threads
system.cpu.FETCH:idle_cycles               7053900848                       # number of cycles where fetch stage was idle
system.cpu.FETCH:idle_icache_blocked_cycles            0                       # number of cycles where fetch was idle due to icache blocked
system.cpu.FETCH:idle_rate                      97.97                       # percent of cycles fetch stage was idle
system.cpu.FETCH:prio_changes                       0                       # Number of times priorities were changed
system.cpu.FETCH:rate                        0.124451                       # Number of inst fetches per cycle
system.cpu.FETCH:rate_dist.start_dist                          # Number of instructions fetched each cycle (Total)
system.cpu.FETCH:rate_dist.samples          145992410                      
system.cpu.FETCH:rate_dist.min_value                0                      
                               0       196709     13.47%           
                               1       347751     23.82%           
                               2       628624     43.06%           
                               3      2968917    203.36%           
                               4       988347     67.70%           
                               5       408479     27.98%           
                               6    121581296   8327.92%           
                               7       938836     64.31%           
                               8     17933451   1228.38%           
system.cpu.FETCH:rate_dist.max_value                8                      
system.cpu.FETCH:rate_dist.end_dist

system.cpu.FETCH:rate_dist_0.start_dist                        # Number of instructions fetched each cycle (Thread 0)
system.cpu.FETCH:rate_dist_0.samples        145992410                      
system.cpu.FETCH:rate_dist_0.min_value              0                      
                               0       196709     13.47%           
                               1       347751     23.82%           
                               2       628624     43.06%           
                               3      2968917    203.36%           
                               4       988347     67.70%           
                               5       408479     27.98%           
                               6    121581296   8327.92%           
                               7       938836     64.31%           
                               8     17933451   1228.38%           
system.cpu.FETCH:rate_dist_0.max_value              8                      
system.cpu.FETCH:rate_dist_0.end_dist

system.cpu.IFQ:count                       5370236211                       # cumulative IFQ occupancy
system.cpu.IFQ:full_count                   159466415                       # cumulative IFQ full count
system.cpu.IFQ:full_rate                     2.214844                       # fraction of time (cycle's) IFQ was full
system.cpu.IFQ:latency                       6.610953                       # avg IFQ occupant latency (cycle's)
system.cpu.IFQ:occupancy                     0.745877                       # avg IFQ occupancy (inst's)
system.cpu.IFQ:qfull_iq_occ                3495781829                       # Number of insts in IQ when fetch-queue full
system.cpu.IFQ:qfull_iq_occ_dist_0.start_dist                     # Number of insts in IQ when fetch-queue full
system.cpu.IFQ:qfull_iq_occ_dist_0.samples     34963479                      
system.cpu.IFQ:qfull_iq_occ_dist_0.min_value            0                      
                               0      5081776   1453.45%           
                              10       358941    102.66%           
                              20       413497    118.27%           
                              30       700541    200.36%           
                              40       701234    200.56%           
                              50       294344     84.19%           
                              60       654573    187.22%           
                              70       190644     54.53%           
                              80        94566     27.05%           
                              90      4079377   1166.75%           
                             100       615365    176.00%           
                             110        59423     17.00%           
                             120     20688848   5917.27%           
                             130        20944      5.99%           
                             140        38226     10.93%           
                             150         7468      2.14%           
                             160        20355      5.82%           
                             170        72770     20.81%           
                             180       215631     61.67%           
                             190         7153      2.05%           
                             200         4246      1.21%           
                             210         1936      0.55%           
                             220         4574      1.31%           
                             230        14058      4.02%           
                             240         5094      1.46%           
                             250       617895    176.73%           
                             260            0      0.00%           
system.cpu.IFQ:qfull_iq_occ_dist_0.max_value          256                      
system.cpu.IFQ:qfull_iq_occ_dist_0.end_dist

system.cpu.IFQ:qfull_rob_occ               6739823539                       # Number of insts in ROB when fetch-queue full
system.cpu.IFQ:qfull_rob_occ_dist_0.start_dist                     # Number of insts in ROB when fetch-queue full
system.cpu.IFQ:qfull_rob_occ_dist_0.samples     34963479                      
system.cpu.IFQ:qfull_rob_occ_dist_0.min_value            1                      
                               0       621996    177.90%           
                              10       834255    238.61%           
                              20       628586    179.78%           
                              30       204435     58.47%           
                              40       156964     44.89%           
                              50        90077     25.76%           
                              60       161793     46.27%           
                              70       526331    150.54%           
                              80       484683    138.63%           
                              90       327602     93.70%           
                             100      4051396   1158.75%           
                             110       300622     85.98%           
                             120       291227     83.29%           
                             130       571685    163.51%           
                             140       213363     61.02%           
                             150       172919     49.46%           
                             160        91152     26.07%           
                             170        47407     13.56%           
                             180       235144     67.25%           
                             190     20624967   5899.00%           
                             200       278424     79.63%           
                             210        66538     19.03%           
                             220        54186     15.50%           
                             230        39198     11.21%           
                             240        26573      7.60%           
                             250       211420     60.47%           
                             260        21554      6.16%           
                             270        17809      5.09%           
                             280        18897      5.40%           
                             290        12677      3.63%           
                             300        24232      6.93%           
                             310        27766      7.94%           
                             320        29971      8.57%           
                             330        11124      3.18%           
                             340        11241      3.22%           
                             350        16396      4.69%           
                             360        35739     10.22%           
                             370        16850      4.82%           
                             380       291803     83.46%           
                             390       173985     49.76%           
                             400        15014      4.29%           
                             410        26381      7.55%           
                             420        11527      3.30%           
                             430        13282      3.80%           
                             440        16990      4.86%           
                             450        14581      4.17%           
                             460         9603      2.75%           
                             470         4784      1.37%           
                             480         2330      0.67%           
                             490         3598      1.03%           
                             500         8329      2.38%           
                             510      2814073    804.86%           
system.cpu.IFQ:qfull_rob_occ_dist_0.max_value          512                      
system.cpu.IFQ:qfull_rob_occ_dist_0.end_dist

system.cpu.IQ:cap_events                            0                       # number of cycles where IQ cap was active
system.cpu.IQ:cap_inst                              0                       # number of instructions held up by IQ cap
system.cpu.IQ:residence:(null).start_dist                      # cycles from dispatch to issue
system.cpu.IQ:residence:(null).samples           6962                      
system.cpu.IQ:residence:(null).min_value            1                      
                               0         6743   9685.44%   9685.44%
                               2          210    301.64%   9987.07%
                               4            5      7.18%   9994.25%
                               6            3      4.31%   9998.56%
                               8            0      0.00%   9998.56%
                              10            0      0.00%   9998.56%
                              12            1      1.44%  10000.00%
                              14            0      0.00%  10000.00%
                              16            0      0.00%  10000.00%
                              18            0      0.00%  10000.00%
                              20            0      0.00%  10000.00%
                              22            0      0.00%  10000.00%
                              24            0      0.00%  10000.00%
                              26            0      0.00%  10000.00%
                              28            0      0.00%  10000.00%
                              30            0      0.00%  10000.00%
                              32            0      0.00%  10000.00%
                              34            0      0.00%  10000.00%
                              36            0      0.00%  10000.00%
                              38            0      0.00%  10000.00%
                              40            0      0.00%  10000.00%
                              42            0      0.00%  10000.00%
                              44            0      0.00%  10000.00%
                              46            0      0.00%  10000.00%
                              48            0      0.00%  10000.00%
                              50            0      0.00%  10000.00%
                              52            0      0.00%  10000.00%
                              54            0      0.00%  10000.00%
                              56            0      0.00%  10000.00%
                              58            0      0.00%  10000.00%
                              60            0      0.00%  10000.00%
                              62            0      0.00%  10000.00%
                              64            0      0.00%  10000.00%
                              66            0      0.00%  10000.00%
                              68            0      0.00%  10000.00%
                              70            0      0.00%  10000.00%
                              72            0      0.00%  10000.00%
                              74            0      0.00%  10000.00%
                              76            0      0.00%  10000.00%
                              78            0      0.00%  10000.00%
                              80            0      0.00%  10000.00%
                              82            0      0.00%  10000.00%
                              84            0      0.00%  10000.00%
                              86            0      0.00%  10000.00%
                              88            0      0.00%  10000.00%
                              90            0      0.00%  10000.00%
                              92            0      0.00%  10000.00%
                              94            0      0.00%  10000.00%
                              96            0      0.00%  10000.00%
                              98            0      0.00%  10000.00%
system.cpu.IQ:residence:(null).max_value           13                      
system.cpu.IQ:residence:(null).end_dist

system.cpu.IQ:residence:IntAlu.start_dist                      # cycles from dispatch to issue
system.cpu.IQ:residence:IntAlu.samples      770279760                      
system.cpu.IQ:residence:IntAlu.min_value            1                      
                               0     11141531    144.64%    144.64%
                               2      7445929     96.67%    241.31%
                               4      5146800     66.82%    308.13%
                               6      3997906     51.90%    360.03%
                               8      2682230     34.82%    394.85%
                              10      2086319     27.09%    421.93%
                              12      1731018     22.47%    444.41%
                              14      1484578     19.27%    463.68%
                              16      1216666     15.80%    479.47%
                              18      1026809     13.33%    492.81%
                              20       860737     11.17%    503.98%
                              22       831739     10.80%    514.78%
                              24       785812     10.20%    524.98%
                              26       595775      7.73%    532.71%
                              28       581917      7.55%    540.27%
                              30       660597      8.58%    548.84%
                              32       470013      6.10%    554.95%
                              34       370130      4.81%    559.75%
                              36       300922      3.91%    563.66%
                              38       282873      3.67%    567.33%
                              40     67326719    874.06%   1441.39%
                              42    526032159   6829.11%   8270.49%
                              44    126858759   1646.92%   9917.41%
                              46       109956      1.43%   9918.84%
                              48        97712      1.27%   9920.10%
                              50        97498      1.27%   9921.37%
                              52       213458      2.77%   9924.14%
                              54       174289      2.26%   9926.40%
                              56       116602      1.51%   9927.92%
                              58        67337      0.87%   9928.79%
                              60        60870      0.79%   9929.58%
                              62       180156      2.34%   9931.92%
                              64       142017      1.84%   9933.77%
                              66        91337      1.19%   9934.95%
                              68       112668      1.46%   9936.41%
                              70        99769      1.30%   9937.71%
                              72        80006      1.04%   9938.75%
                              74        69862      0.91%   9939.65%
                              76        53659      0.70%   9940.35%
                              78        57859      0.75%   9941.10%
                              80        36667      0.48%   9941.58%
                              82        34460      0.45%   9942.03%
                              84        24008      0.31%   9942.34%
                              86        30064      0.39%   9942.73%
                              88        27350      0.36%   9943.08%
                              90        23973      0.31%   9943.39%
                              92        26698      0.35%   9943.74%
                              94        29222      0.38%   9944.12%
                              96        25374      0.33%   9944.45%
                              98        26568      0.34%   9944.79%
system.cpu.IQ:residence:IntAlu.overflows      4252383                      
system.cpu.IQ:residence:IntAlu.max_value        13139                      
system.cpu.IQ:residence:IntAlu.end_dist

system.cpu.IQ:residence:IntMult.start_dist                     # cycles from dispatch to issue
system.cpu.IQ:residence:IntMult.samples         69630                      
system.cpu.IQ:residence:IntMult.min_value            1                      
                               0         1860    267.13%    267.13%
                               2         1118    160.56%    427.69%
                               4         8488   1219.01%   1646.70%
                               6         4717    677.44%   2324.14%
                               8         4644    666.95%   2991.10%
                              10         7085   1017.52%   4008.62%
                              12         4986    716.07%   4724.69%
                              14         3054    438.60%   5163.29%
                              16         2016    289.53%   5452.82%
                              18         1408    202.21%   5655.03%
                              20          229     32.89%   5687.92%
                              22          707    101.54%   5789.46%
                              24         3106    446.07%   6235.53%
                              26          527     75.69%   6311.22%
                              28         2101    301.74%   6612.95%
                              30          198     28.44%   6641.39%
                              32           77     11.06%   6652.45%
                              34         1812    260.23%   6912.68%
                              36           99     14.22%   6926.90%
                              38         1294    185.84%   7112.74%
                              40          330     47.39%   7160.13%
                              42          388     55.72%   7215.86%
                              44         1281    183.97%   7399.83%
                              46          120     17.23%   7417.06%
                              48          147     21.11%   7438.17%
                              50          578     83.01%   7521.18%
                              52           85     12.21%   7533.39%
                              54          513     73.68%   7607.07%
                              56           79     11.35%   7618.41%
                              58          529     75.97%   7694.38%
                              60           60      8.62%   7703.00%
                              62           47      6.75%   7709.75%
                              64          487     69.94%   7779.69%
                              66          418     60.03%   7839.72%
                              68           66      9.48%   7849.20%
                              70          402     57.73%   7906.94%
                              72         9144   1313.23%   9220.16%
                              74          160     22.98%   9243.14%
                              76          107     15.37%   9258.51%
                              78           41      5.89%   9264.40%
                              80           22      3.16%   9267.56%
                              82          113     16.23%   9283.79%
                              84           15      2.15%   9285.94%
                              86          146     20.97%   9306.91%
                              88            7      1.01%   9307.91%
                              90          237     34.04%   9341.95%
                              92           18      2.59%   9344.54%
                              94           12      1.72%   9346.26%
                              96            9      1.29%   9347.55%
                              98           15      2.15%   9349.71%
system.cpu.IQ:residence:IntMult.overflows         4528                      
system.cpu.IQ:residence:IntMult.max_value          513                      
system.cpu.IQ:residence:IntMult.end_dist

system.cpu.IQ:residence:IntDiv.start_dist                      # cycles from dispatch to issue
system.cpu.IQ:residence:IntDiv.samples              0                      
system.cpu.IQ:residence:IntDiv.min_value            0                      
                               0            0                      
                               2            0                      
                               4            0                      
                               6            0                      
                               8            0                      
                              10            0                      
                              12            0                      
                              14            0                      
                              16            0                      
                              18            0                      
                              20            0                      
                              22            0                      
                              24            0                      
                              26            0                      
                              28            0                      
                              30            0                      
                              32            0                      
                              34            0                      
                              36            0                      
                              38            0                      
                              40            0                      
                              42            0                      
                              44            0                      
                              46            0                      
                              48            0                      
                              50            0                      
                              52            0                      
                              54            0                      
                              56            0                      
                              58            0                      
                              60            0                      
                              62            0                      
                              64            0                      
                              66            0                      
                              68            0                      
                              70            0                      
                              72            0                      
                              74            0                      
                              76            0                      
                              78            0                      
                              80            0                      
                              82            0                      
                              84            0                      
                              86            0                      
                              88            0                      
                              90            0                      
                              92            0                      
                              94            0                      
                              96            0                      
                              98            0                      
system.cpu.IQ:residence:IntDiv.max_value            0                      
system.cpu.IQ:residence:IntDiv.end_dist

system.cpu.IQ:residence:FloatAdd.start_dist                     # cycles from dispatch to issue
system.cpu.IQ:residence:FloatAdd.samples         9257                      
system.cpu.IQ:residence:FloatAdd.min_value            1                      
                               0          988   1067.30%   1067.30%
                               2          869    938.75%   2006.05%
                               4         2086   2253.43%   4259.48%
                               6         2584   2791.40%   7050.88%
                               8            9      9.72%   7060.60%
                              10            1      1.08%   7061.68%
                              12            1      1.08%   7062.76%
                              14            2      2.16%   7064.92%
                              16           28     30.25%   7095.17%
                              18           30     32.41%   7127.58%
                              20            2      2.16%   7129.74%
                              22            0      0.00%   7129.74%
                              24         2609   2818.41%   9948.15%
                              26           11     11.88%   9960.03%
                              28            0      0.00%   9960.03%
                              30            0      0.00%   9960.03%
                              32            1      1.08%   9961.11%
                              34            0      0.00%   9961.11%
                              36            0      0.00%   9961.11%
                              38            0      0.00%   9961.11%
                              40            0      0.00%   9961.11%
                              42            0      0.00%   9961.11%
                              44            0      0.00%   9961.11%
                              46            0      0.00%   9961.11%
                              48            0      0.00%   9961.11%
                              50            0      0.00%   9961.11%
                              52            0      0.00%   9961.11%
                              54            0      0.00%   9961.11%
                              56            0      0.00%   9961.11%
                              58            0      0.00%   9961.11%
                              60            0      0.00%   9961.11%
                              62            0      0.00%   9961.11%
                              64            3      3.24%   9964.35%
                              66           26     28.09%   9992.44%
                              68            0      0.00%   9992.44%
                              70            0      0.00%   9992.44%
                              72            2      2.16%   9994.60%
                              74            0      0.00%   9994.60%
                              76            0      0.00%   9994.60%
                              78            0      0.00%   9994.60%
                              80            0      0.00%   9994.60%
                              82            0      0.00%   9994.60%
                              84            1      1.08%   9995.68%
                              86            0      0.00%   9995.68%
                              88            0      0.00%   9995.68%
                              90            0      0.00%   9995.68%
                              92            0      0.00%   9995.68%
                              94            0      0.00%   9995.68%
                              96            0      0.00%   9995.68%
                              98            0      0.00%   9995.68%
system.cpu.IQ:residence:FloatAdd.overflows            4                      
system.cpu.IQ:residence:FloatAdd.max_value          145                      
system.cpu.IQ:residence:FloatAdd.end_dist

system.cpu.IQ:residence:FloatCmp.start_dist                     # cycles from dispatch to issue
system.cpu.IQ:residence:FloatCmp.samples            0                      
system.cpu.IQ:residence:FloatCmp.min_value            0                      
                               0            0                      
                               2            0                      
                               4            0                      
                               6            0                      
                               8            0                      
                              10            0                      
                              12            0                      
                              14            0                      
                              16            0                      
                              18            0                      
                              20            0                      
                              22            0                      
                              24            0                      
                              26            0                      
                              28            0                      
                              30            0                      
                              32            0                      
                              34            0                      
                              36            0                      
                              38            0                      
                              40            0                      
                              42            0                      
                              44            0                      
                              46            0                      
                              48            0                      
                              50            0                      
                              52            0                      
                              54            0                      
                              56            0                      
                              58            0                      
                              60            0                      
                              62            0                      
                              64            0                      
                              66            0                      
                              68            0                      
                              70            0                      
                              72            0                      
                              74            0                      
                              76            0                      
                              78            0                      
                              80            0                      
                              82            0                      
                              84            0                      
                              86            0                      
                              88            0                      
                              90            0                      
                              92            0                      
                              94            0                      
                              96            0                      
                              98            0                      
system.cpu.IQ:residence:FloatCmp.max_value            0                      
system.cpu.IQ:residence:FloatCmp.end_dist

system.cpu.IQ:residence:FloatCvt.start_dist                     # cycles from dispatch to issue
system.cpu.IQ:residence:FloatCvt.samples            0                      
system.cpu.IQ:residence:FloatCvt.min_value            0                      
                               0            0                      
                               2            0                      
                               4            0                      
                               6            0                      
                               8            0                      
                              10            0                      
                              12            0                      
                              14            0                      
                              16            0                      
                              18            0                      
                              20            0                      
                              22            0                      
                              24            0                      
                              26            0                      
                              28            0                      
                              30            0                      
                              32            0                      
                              34            0                      
                              36            0                      
                              38            0                      
                              40            0                      
                              42            0                      
                              44            0                      
                              46            0                      
                              48            0                      
                              50            0                      
                              52            0                      
                              54            0                      
                              56            0                      
                              58            0                      
                              60            0                      
                              62            0                      
                              64            0                      
                              66            0                      
                              68            0                      
                              70            0                      
                              72            0                      
                              74            0                      
                              76            0                      
                              78            0                      
                              80            0                      
                              82            0                      
                              84            0                      
                              86            0                      
                              88            0                      
                              90            0                      
                              92            0                      
                              94            0                      
                              96            0                      
                              98            0                      
system.cpu.IQ:residence:FloatCvt.max_value            0                      
system.cpu.IQ:residence:FloatCvt.end_dist

system.cpu.IQ:residence:FloatMult.start_dist                     # cycles from dispatch to issue
system.cpu.IQ:residence:FloatMult.samples            0                      
system.cpu.IQ:residence:FloatMult.min_value            0                      
                               0            0                      
                               2            0                      
                               4            0                      
                               6            0                      
                               8            0                      
                              10            0                      
                              12            0                      
                              14            0                      
                              16            0                      
                              18            0                      
                              20            0                      
                              22            0                      
                              24            0                      
                              26            0                      
                              28            0                      
                              30            0                      
                              32            0                      
                              34            0                      
                              36            0                      
                              38            0                      
                              40            0                      
                              42            0                      
                              44            0                      
                              46            0                      
                              48            0                      
                              50            0                      
                              52            0                      
                              54            0                      
                              56            0                      
                              58            0                      
                              60            0                      
                              62            0                      
                              64            0                      
                              66            0                      
                              68            0                      
                              70            0                      
                              72            0                      
                              74            0                      
                              76            0                      
                              78            0                      
                              80            0                      
                              82            0                      
                              84            0                      
                              86            0                      
                              88            0                      
                              90            0                      
                              92            0                      
                              94            0                      
                              96            0                      
                              98            0                      
system.cpu.IQ:residence:FloatMult.max_value            0                      
system.cpu.IQ:residence:FloatMult.end_dist

system.cpu.IQ:residence:FloatDiv.start_dist                     # cycles from dispatch to issue
system.cpu.IQ:residence:FloatDiv.samples           62                      
system.cpu.IQ:residence:FloatDiv.min_value            1                      
                               0            1    161.29%    161.29%
                               2            1    161.29%    322.58%
                               4            0      0.00%    322.58%
                               6           58   9354.84%   9677.42%
                               8            0      0.00%   9677.42%
                              10            0      0.00%   9677.42%
                              12            0      0.00%   9677.42%
                              14            0      0.00%   9677.42%
                              16            0      0.00%   9677.42%
                              18            0      0.00%   9677.42%
                              20            0      0.00%   9677.42%
                              22            1    161.29%   9838.71%
                              24            0      0.00%   9838.71%
                              26            0      0.00%   9838.71%
                              28            0      0.00%   9838.71%
                              30            0      0.00%   9838.71%
                              32            0      0.00%   9838.71%
                              34            0      0.00%   9838.71%
                              36            0      0.00%   9838.71%
                              38            0      0.00%   9838.71%
                              40            0      0.00%   9838.71%
                              42            0      0.00%   9838.71%
                              44            0      0.00%   9838.71%
                              46            0      0.00%   9838.71%
                              48            0      0.00%   9838.71%
                              50            0      0.00%   9838.71%
                              52            0      0.00%   9838.71%
                              54            0      0.00%   9838.71%
                              56            0      0.00%   9838.71%
                              58            0      0.00%   9838.71%
                              60            0      0.00%   9838.71%
                              62            0      0.00%   9838.71%
                              64            0      0.00%   9838.71%
                              66            0      0.00%   9838.71%
                              68            0      0.00%   9838.71%
                              70            0      0.00%   9838.71%
                              72            0      0.00%   9838.71%
                              74            1    161.29%  10000.00%
                              76            0      0.00%  10000.00%
                              78            0      0.00%  10000.00%
                              80            0      0.00%  10000.00%
                              82            0      0.00%  10000.00%
                              84            0      0.00%  10000.00%
                              86            0      0.00%  10000.00%
                              88            0      0.00%  10000.00%
                              90            0      0.00%  10000.00%
                              92            0      0.00%  10000.00%
                              94            0      0.00%  10000.00%
                              96            0      0.00%  10000.00%
                              98            0      0.00%  10000.00%
system.cpu.IQ:residence:FloatDiv.max_value           74                      
system.cpu.IQ:residence:FloatDiv.end_dist

system.cpu.IQ:residence:FloatSqrt.start_dist                     # cycles from dispatch to issue
system.cpu.IQ:residence:FloatSqrt.samples            0                      
system.cpu.IQ:residence:FloatSqrt.min_value            0                      
                               0            0                      
                               2            0                      
                               4            0                      
                               6            0                      
                               8            0                      
                              10            0                      
                              12            0                      
                              14            0                      
                              16            0                      
                              18            0                      
                              20            0                      
                              22            0                      
                              24            0                      
                              26            0                      
                              28            0                      
                              30            0                      
                              32            0                      
                              34            0                      
                              36            0                      
                              38            0                      
                              40            0                      
                              42            0                      
                              44            0                      
                              46            0                      
                              48            0                      
                              50            0                      
                              52            0                      
                              54            0                      
                              56            0                      
                              58            0                      
                              60            0                      
                              62            0                      
                              64            0                      
                              66            0                      
                              68            0                      
                              70            0                      
                              72            0                      
                              74            0                      
                              76            0                      
                              78            0                      
                              80            0                      
                              82            0                      
                              84            0                      
                              86            0                      
                              88            0                      
                              90            0                      
                              92            0                      
                              94            0                      
                              96            0                      
                              98            0                      
system.cpu.IQ:residence:FloatSqrt.max_value            0                      
system.cpu.IQ:residence:FloatSqrt.end_dist

system.cpu.IQ:residence:MemRead.start_dist                     # cycles from dispatch to issue
system.cpu.IQ:residence:MemRead.samples      25583395                      
system.cpu.IQ:residence:MemRead.min_value            1                      
                               0      4827740   1887.06%   1887.06%
                               2      6333879   2475.78%   4362.84%
                               4      2414213    943.66%   5306.50%
                               6      1793367    700.99%   6007.49%
                               8      1224107    478.48%   6485.97%
                              10      1005951    393.20%   6879.17%
                              12       699771    273.53%   7152.70%
                              14       611968    239.21%   7391.90%
                              16       540238    211.17%   7603.07%
                              18       408239    159.57%   7762.64%
                              20       306180    119.68%   7882.32%
                              22       294984    115.30%   7997.62%
                              24       306616    119.85%   8117.47%
                              26       297538    116.30%   8233.77%
                              28       258056    100.87%   8334.64%
                              30       240775     94.11%   8428.76%
                              32       174914     68.37%   8497.13%
                              34       205043     80.15%   8577.27%
                              36       136301     53.28%   8630.55%
                              38       125027     48.87%   8679.42%
                              40        80585     31.50%   8710.92%
                              42        56769     22.19%   8733.11%
                              44        56072     21.92%   8755.03%
                              46        52654     20.58%   8775.61%
                              48        52179     20.40%   8796.00%
                              50        91355     35.71%   8831.71%
                              52        38545     15.07%   8846.78%
                              54        97905     38.27%   8885.05%
                              56        40000     15.64%   8900.68%
                              58        27653     10.81%   8911.49%
                              60        64831     25.34%   8936.83%
                              62        45276     17.70%   8954.53%
                              64       116056     45.36%   8999.90%
                              66        40727     15.92%   9015.81%
                              68        44937     17.56%   9033.38%
                              70        54914     21.46%   9054.84%
                              72        30924     12.09%   9066.93%
                              74        22457      8.78%   9075.71%
                              76        14871      5.81%   9081.52%
                              78        18709      7.31%   9088.84%
                              80        34771     13.59%   9102.43%
                              82        18113      7.08%   9109.51%
                              84        12846      5.02%   9114.53%
                              86        17753      6.94%   9121.47%
                              88        15612      6.10%   9127.57%
                              90        13070      5.11%   9132.68%
                              92        13225      5.17%   9137.85%
                              94        16638      6.50%   9144.35%
                              96        15972      6.24%   9150.59%
                              98        12192      4.77%   9155.36%
system.cpu.IQ:residence:MemRead.overflows      2160877                      
system.cpu.IQ:residence:MemRead.max_value        17495                      
system.cpu.IQ:residence:MemRead.end_dist

system.cpu.IQ:residence:MemWrite.start_dist                     # cycles from dispatch to issue
system.cpu.IQ:residence:MemWrite.samples     16444285                      
system.cpu.IQ:residence:MemWrite.min_value            1                      
                               0      2508144   1525.24%   1525.24%
                               2      4595744   2794.74%   4319.97%
                               4      1844301   1121.55%   5441.52%
                               6      1359192    826.54%   6268.06%
                               8       859101    522.43%   6790.49%
                              10       835697    508.20%   7298.69%
                              12       674810    410.36%   7709.05%
                              14       523224    318.18%   8027.23%
                              16       288290    175.31%   8202.55%
                              18       218438    132.84%   8335.38%
                              20       184740    112.34%   8447.73%
                              22       211103    128.37%   8576.10%
                              24       217805    132.45%   8708.55%
                              26       163465     99.41%   8807.96%
                              28       151778     92.30%   8900.25%
                              30       173221    105.34%   9005.59%
                              32       128917     78.40%   9083.99%
                              34        90693     55.15%   9139.14%
                              36        74100     45.06%   9184.20%
                              38        59750     36.33%   9220.54%
                              40        54635     33.22%   9253.76%
                              42        41531     25.26%   9279.02%
                              44        28940     17.60%   9296.62%
                              46        28131     17.11%   9313.72%
                              48        20935     12.73%   9326.45%
                              50        23445     14.26%   9340.71%
                              52        84923     51.64%   9392.35%
                              54        83760     50.94%   9443.29%
                              56        31764     19.32%   9462.60%
                              58        40647     24.72%   9487.32%
                              60        46029     27.99%   9515.31%
                              62        44512     27.07%   9542.38%
                              64       180043    109.49%   9651.87%
                              66        26980     16.41%   9668.28%
                              68        20044     12.19%   9680.46%
                              70        20194     12.28%   9692.74%
                              72        13322      8.10%   9700.85%
                              74        18602     11.31%   9712.16%
                              76        17821     10.84%   9723.00%
                              78        28649     17.42%   9740.42%
                              80        27493     16.72%   9757.14%
                              82         7090      4.31%   9761.45%
                              84         6834      4.16%   9765.60%
                              86         5680      3.45%   9769.06%
                              88         4422      2.69%   9771.75%
                              90         5677      3.45%   9775.20%
                              92         5072      3.08%   9778.28%
                              94         6607      4.02%   9782.30%
                              96         6345      3.86%   9786.16%
                              98         5153      3.13%   9789.29%
system.cpu.IQ:residence:MemWrite.overflows       346492                      
system.cpu.IQ:residence:MemWrite.max_value        17503                      
system.cpu.IQ:residence:MemWrite.end_dist

system.cpu.IQ:residence:IprAccess.start_dist                     # cycles from dispatch to issue
system.cpu.IQ:residence:IprAccess.samples      1237369                      
system.cpu.IQ:residence:IprAccess.min_value            1                      
                               0       301670   2438.00%   2438.00%
                               2        46402    375.01%   2813.00%
                               4       241373   1950.70%   4763.70%
                               6       250184   2021.90%   6785.60%
                               8        38016    307.23%   7092.83%
                              10       201535   1628.74%   8721.57%
                              12        28536    230.62%   8952.19%
                              14        23256    187.95%   9140.14%
                              16        11311     91.41%   9231.55%
                              18        16770    135.53%   9367.08%
                              20        15022    121.40%   9488.48%
                              22         7536     60.90%   9549.38%
                              24        13427    108.51%   9657.90%
                              26        12200     98.60%   9756.49%
                              28         4772     38.57%   9795.06%
                              30         1558     12.59%   9807.65%
                              32         2454     19.83%   9827.48%
                              34         1424     11.51%   9838.99%
                              36         1973     15.95%   9854.93%
                              38          984      7.95%   9862.89%
                              40         1972     15.94%   9878.82%
                              42         1401     11.32%   9890.15%
                              44         1224      9.89%   9900.04%
                              46         1575     12.73%   9912.77%
                              48         1820     14.71%   9927.48%
                              50          590      4.77%   9932.24%
                              52          744      6.01%   9938.26%
                              54          663      5.36%   9943.61%
                              56          492      3.98%   9947.59%
                              58          327      2.64%   9950.23%
                              60          605      4.89%   9955.12%
                              62          349      2.82%   9957.94%
                              64          510      4.12%   9962.06%
                              66          725      5.86%   9967.92%
                              68          469      3.79%   9971.71%
                              70          155      1.25%   9972.97%
                              72          287      2.32%   9975.29%
                              74          286      2.31%   9977.60%
                              76          235      1.90%   9979.50%
                              78          115      0.93%   9980.43%
                              80          210      1.70%   9982.12%
                              82          143      1.16%   9983.28%
                              84          140      1.13%   9984.41%
                              86           78      0.63%   9985.04%
                              88           99      0.80%   9985.84%
                              90           89      0.72%   9986.56%
                              92           57      0.46%   9987.02%
                              94           75      0.61%   9987.63%
                              96           54      0.44%   9988.06%
                              98           61      0.49%   9988.56%
system.cpu.IQ:residence:IprAccess.overflows         1416                      
system.cpu.IQ:residence:IprAccess.max_value          360                      
system.cpu.IQ:residence:IprAccess.end_dist

system.cpu.IQ:residence:InstPrefetch.start_dist                     # cycles from dispatch to issue
system.cpu.IQ:residence:InstPrefetch.samples            0                      
system.cpu.IQ:residence:InstPrefetch.min_value            0                      
                               0            0                      
                               2            0                      
                               4            0                      
                               6            0                      
                               8            0                      
                              10            0                      
                              12            0                      
                              14            0                      
                              16            0                      
                              18            0                      
                              20            0                      
                              22            0                      
                              24            0                      
                              26            0                      
                              28            0                      
                              30            0                      
                              32            0                      
                              34            0                      
                              36            0                      
                              38            0                      
                              40            0                      
                              42            0                      
                              44            0                      
                              46            0                      
                              48            0                      
                              50            0                      
                              52            0                      
                              54            0                      
                              56            0                      
                              58            0                      
                              60            0                      
                              62            0                      
                              64            0                      
                              66            0                      
                              68            0                      
                              70            0                      
                              72            0                      
                              74            0                      
                              76            0                      
                              78            0                      
                              80            0                      
                              82            0                      
                              84            0                      
                              86            0                      
                              88            0                      
                              90            0                      
                              92            0                      
                              94            0                      
                              96            0                      
                              98            0                      
system.cpu.IQ:residence:InstPrefetch.max_value            0                      
system.cpu.IQ:residence:InstPrefetch.end_dist

system.cpu.ISSUE:(null)_delay.start_dist                       # cycles from operands ready to issue
system.cpu.ISSUE:(null)_delay.samples            6962                      
system.cpu.ISSUE:(null)_delay.min_value             1                      
                               0         6743   9685.44%   9685.44%
                               2          210    301.64%   9987.07%
                               4            5      7.18%   9994.25%
                               6            3      4.31%   9998.56%
                               8            0      0.00%   9998.56%
                              10            0      0.00%   9998.56%
                              12            1      1.44%  10000.00%
                              14            0      0.00%  10000.00%
                              16            0      0.00%  10000.00%
                              18            0      0.00%  10000.00%
                              20            0      0.00%  10000.00%
                              22            0      0.00%  10000.00%
                              24            0      0.00%  10000.00%
                              26            0      0.00%  10000.00%
                              28            0      0.00%  10000.00%
                              30            0      0.00%  10000.00%
                              32            0      0.00%  10000.00%
                              34            0      0.00%  10000.00%
                              36            0      0.00%  10000.00%
                              38            0      0.00%  10000.00%
                              40            0      0.00%  10000.00%
                              42            0      0.00%  10000.00%
                              44            0      0.00%  10000.00%
                              46            0      0.00%  10000.00%
                              48            0      0.00%  10000.00%
                              50            0      0.00%  10000.00%
                              52            0      0.00%  10000.00%
                              54            0      0.00%  10000.00%
                              56            0      0.00%  10000.00%
                              58            0      0.00%  10000.00%
                              60            0      0.00%  10000.00%
                              62            0      0.00%  10000.00%
                              64            0      0.00%  10000.00%
                              66            0      0.00%  10000.00%
                              68            0      0.00%  10000.00%
                              70            0      0.00%  10000.00%
                              72            0      0.00%  10000.00%
                              74            0      0.00%  10000.00%
                              76            0      0.00%  10000.00%
                              78            0      0.00%  10000.00%
                              80            0      0.00%  10000.00%
                              82            0      0.00%  10000.00%
                              84            0      0.00%  10000.00%
                              86            0      0.00%  10000.00%
                              88            0      0.00%  10000.00%
                              90            0      0.00%  10000.00%
                              92            0      0.00%  10000.00%
                              94            0      0.00%  10000.00%
                              96            0      0.00%  10000.00%
                              98            0      0.00%  10000.00%
system.cpu.ISSUE:(null)_delay.max_value            13                      
system.cpu.ISSUE:(null)_delay.end_dist

system.cpu.ISSUE:IntAlu_delay.start_dist                       # cycles from operands ready to issue
system.cpu.ISSUE:IntAlu_delay.samples       770279760                      
system.cpu.ISSUE:IntAlu_delay.min_value             0                      
                               0    526319025   6832.83%   6832.83%
                               2      2540759     32.98%   6865.81%
                               4       482756      6.27%   6872.08%
                               6       227296      2.95%   6875.03%
                               8       146054      1.90%   6876.93%
                              10        76585      0.99%   6877.92%
                              12        99254      1.29%   6879.21%
                              14        55942      0.73%   6879.94%
                              16        61731      0.80%   6880.74%
                              18        50105      0.65%   6881.39%
                              20        33241      0.43%   6881.82%
                              22        29040      0.38%   6882.20%
                              24        26759      0.35%   6882.55%
                              26        26530      0.34%   6882.89%
                              28        25841      0.34%   6883.23%
                              30        26099      0.34%   6883.56%
                              32        24786      0.32%   6883.89%
                              34        24578      0.32%   6884.21%
                              36        24603      0.32%   6884.52%
                              38        24930      0.32%   6884.85%
                              40     64788706    841.11%   7725.95%
                              42    175165140   2274.05%  10000.00%
                              44            0      0.00%  10000.00%
                              46            0      0.00%  10000.00%
                              48            0      0.00%  10000.00%
                              50            0      0.00%  10000.00%
                              52            0      0.00%  10000.00%
                              54            0      0.00%  10000.00%
                              56            0      0.00%  10000.00%
                              58            0      0.00%  10000.00%
                              60            0      0.00%  10000.00%
                              62            0      0.00%  10000.00%
                              64            0      0.00%  10000.00%
                              66            0      0.00%  10000.00%
                              68            0      0.00%  10000.00%
                              70            0      0.00%  10000.00%
                              72            0      0.00%  10000.00%
                              74            0      0.00%  10000.00%
                              76            0      0.00%  10000.00%
                              78            0      0.00%  10000.00%
                              80            0      0.00%  10000.00%
                              82            0      0.00%  10000.00%
                              84            0      0.00%  10000.00%
                              86            0      0.00%  10000.00%
                              88            0      0.00%  10000.00%
                              90            0      0.00%  10000.00%
                              92            0      0.00%  10000.00%
                              94            0      0.00%  10000.00%
                              96            0      0.00%  10000.00%
                              98            0      0.00%  10000.00%
system.cpu.ISSUE:IntAlu_delay.max_value            43                      
system.cpu.ISSUE:IntAlu_delay.end_dist

system.cpu.ISSUE:IntMult_delay.start_dist                      # cycles from operands ready to issue
system.cpu.ISSUE:IntMult_delay.samples          69630                      
system.cpu.ISSUE:IntMult_delay.min_value            0                      
                               0        69593   9994.69%   9994.69%
                               2           32      4.60%   9999.28%
                               4            4      0.57%   9999.86%
                               6            1      0.14%  10000.00%
                               8            0      0.00%  10000.00%
                              10            0      0.00%  10000.00%
                              12            0      0.00%  10000.00%
                              14            0      0.00%  10000.00%
                              16            0      0.00%  10000.00%
                              18            0      0.00%  10000.00%
                              20            0      0.00%  10000.00%
                              22            0      0.00%  10000.00%
                              24            0      0.00%  10000.00%
                              26            0      0.00%  10000.00%
                              28            0      0.00%  10000.00%
                              30            0      0.00%  10000.00%
                              32            0      0.00%  10000.00%
                              34            0      0.00%  10000.00%
                              36            0      0.00%  10000.00%
                              38            0      0.00%  10000.00%
[...]
system.cpu.l3.demand_misses                    317140                       # number of demand (read+write) misses
system.cpu.l3.demand_mshr_hits                      0                       # number of demand (read+write) MSHR hits
system.cpu.l3.demand_mshr_miss_latency       23528927                       # number of demand (read+write) MSHR miss cycles
system.cpu.l3.demand_mshr_miss_rate          0.468313                       # mshr miss rate for demand accesses
system.cpu.l3.demand_mshr_misses               317140                       # number of demand (read+write) MSHR misses
system.cpu.l3.fast_writes                           0                       # number of fast writes performed
system.cpu.l3.mshr_cap_events                       0                       # number of times MSHR cap was activated
system.cpu.l3.no_allocate_misses                    0                       # Number of misses that were no-allocate
system.cpu.l3.overall_accesses                 926469                       # number of overall (read+write) accesses
system.cpu.l3.overall_avg_miss_latency     111.749597                       # average overall miss latency
system.cpu.l3.overall_avg_mshr_miss_latency    74.190979                       # average overall mshr miss latency
system.cpu.l3.overall_avg_mshr_uncacheable_latency    87.149445                       # average overall mshr uncacheable latency
system.cpu.l3.overall_hits                     609221                       # number of overall hits
system.cpu.l3.overall_miss_latency           35452336                       # number of overall miss cycles
system.cpu.l3.overall_miss_rate              0.342427                       # miss rate for overall accesses
system.cpu.l3.overall_misses                   317248                       # number of overall misses
system.cpu.l3.overall_mshr_hits                     0                       # number of overall MSHR hits
system.cpu.l3.overall_mshr_miss_latency      23528927                       # number of overall MSHR miss cycles
system.cpu.l3.overall_mshr_miss_rate         0.342310                       # mshr miss rate for overall accesses
system.cpu.l3.overall_mshr_misses              317140                       # number of overall MSHR misses
system.cpu.l3.overall_mshr_uncacheable_latency      1445635                       # number of overall MSHR uncacheable cycles
system.cpu.l3.overall_mshr_uncacheable_misses        16588                       # number of overall MSHR uncacheable misses
system.cpu.l3.prefetcher.num_hwpf_already_in_cache            0                       # number of hwpf that were already in the cache
system.cpu.l3.prefetcher.num_hwpf_already_in_mshr            0                       # number of hwpf that were already in mshr
system.cpu.l3.prefetcher.num_hwpf_already_in_prefetcher            0                       # number of hwpf that were already in the prefetch queue
system.cpu.l3.prefetcher.num_hwpf_evicted            0                       # number of hwpf removed due to no buffer left
system.cpu.l3.prefetcher.num_hwpf_identified            0                       # number of hwpf identified
system.cpu.l3.prefetcher.num_hwpf_issued            0                       # number of hwpf issued
system.cpu.l3.prefetcher.num_hwpf_removed_MSHR_hit            0                       # number of hwpf removed because MSHR allocated
system.cpu.l3.prefetcher.num_hwpf_span_page            0                       # number of hwpf spanning a virtual page
system.cpu.l3.prefetcher.num_hwpf_squashed_from_miss            0                       # number of hwpf that got squashed due to a miss aborting calculation time
system.cpu.l3.read_accesses                    677197                       # number of read accesses(hits+misses)
system.cpu.l3.read_avg_miss_latency        111.787652                       # average read miss latency
system.cpu.l3.read_avg_mshr_miss_latency    74.190979                       # average read mshr miss latency
system.cpu.l3.read_avg_mshr_uncacheable_latency    32.723183                       # average read mshr uncacheable latency
system.cpu.l3.read_hits                        360057                       # number of read hits
system.cpu.l3.read_miss_latency              35452336                       # number of read miss cycles
system.cpu.l3.read_miss_rate                 0.468313                       # miss rate for read accesses
system.cpu.l3.read_misses                      317140                       # number of read misses
system.cpu.l3.read_mshr_miss_latency         23528927                       # number of read MSHR miss cycles
system.cpu.l3.read_mshr_miss_rate            0.468313                       # mshr miss rate for read accesses
system.cpu.l3.read_mshr_misses                 317140                       # number of read MSHR misses
system.cpu.l3.read_mshr_uncacheable              6936                       # number of read MSHR uncacheable
system.cpu.l3.read_mshr_uncacheable_latency       226968                       # number of read MSHR uncacheable cycles
system.cpu.l3.replacements                     284170                       # number of replacements
system.cpu.l3.sampled_refs                     316348                       # Sample count of references to valid blocks.
system.cpu.l3.soft_prefetch_mshr_full               0                       # number of mshr full events for SW prefetching instrutions
system.cpu.l3.tagsinuse                  32754.065341                       # Cycle average of tags in use
system.cpu.l3.total_refs                       608299                       # Total number of references to valid blocks.
system.cpu.l3.warmup_cycle                    5890021                       # Cycle when the warmup percentage was hit.
system.cpu.l3.write_avg_mshr_uncacheable_latency   126.260568                       # average write mshr uncacheable latency
system.cpu.l3.write_mshr_uncacheable             9652                       # number of write MSHR uncacheable
system.cpu.l3.write_mshr_uncacheable_latency      1218667                       # number of write MSHR uncacheable cycles
system.cpu.l3.writeback_accesses               249272                       # number of writeback accesses(hits+misses)
system.cpu.l3.writeback_hits                   249164                       # number of writeback hits
system.cpu.l3.writeback_miss_rate            0.000433                       # miss rate for writeback accesses
system.cpu.l3.writeback_misses                    108                       # number of writeback misses
system.cpu.l3.writeback_mshr_miss_rate       0.000433                       # mshr miss rate for writeback accesses
system.cpu.l3.writeback_mshr_misses               108                       # number of writeback MSHR misses
system.cpu.l3.writebacks                       137889                       # number of writebacks
system.cpu.numCycles                       7199893258                       # number of cpu cycles simulated
system.cpu.toL2Bus.addr_idle_cycles        7196638323                       # number of cycles bus was idle
system.cpu.toL2Bus.addr_idle_fraction        0.999548                       # fraction of time addr bus was idle
system.cpu.toL2Bus.addr_queued               3.720510                       # average queueing delay seen by bus request
system.cpu.toL2Bus.addr_queued_cycles        12081913                       # total number of queued cycles for all requests
system.cpu.toL2Bus.addr_requests              3247381                       # number of transmissions on bus
system.cpu.toL2Bus.bus_blocked                    314                       # number of times bus was blocked
system.cpu.toL2Bus.bus_blocked_cycles           84038                       # number of cycles bus was blocked
system.cpu.toL2Bus.bus_blocked_fraction      0.000012                       # fraction of time bus was blocked
system.cpu.toL2Bus.data_idle_cycles        7196694896                       # number of cycles bus was idle
system.cpu.toL2Bus.data_idle_fraction        0.999556                       # fraction of time data bus was idle
system.cpu.toL2Bus.data_queued               1.023612                       # average queueing delay seen by bus request
system.cpu.toL2Bus.data_queued_cycles         2685317                       # total number of queued cycles for all requests
system.cpu.toL2Bus.data_requests              2623375                       # number of transmissions on bus
system.cpu.toL2Bus.null_grants                  66687                       # number of null grants (wasted cycles)
system.cpu.toL3Bus.addr_idle_cycles        7198901014                       # number of cycles bus was idle
system.cpu.toL3Bus.addr_idle_fraction        0.999862                       # fraction of time addr bus was idle
system.cpu.toL3Bus.addr_queued               9.898436                       # average queueing delay seen by bus request
system.cpu.toL3Bus.addr_queued_cycles         9820248                       # total number of queued cycles for all requests
system.cpu.toL3Bus.addr_requests               992101                       # number of transmissions on bus
system.cpu.toL3Bus.bus_blocked                    191                       # number of times bus was blocked
system.cpu.toL3Bus.bus_blocked_cycles           74529                       # number of cycles bus was blocked
system.cpu.toL3Bus.bus_blocked_fraction      0.000010                       # fraction of time bus was blocked
system.cpu.toL3Bus.data_idle_cycles        7198950166                       # number of cycles bus was idle
system.cpu.toL3Bus.data_idle_fraction        0.999869                       # fraction of time data bus was idle
system.cpu.toL3Bus.data_queued               1.056472                       # average queueing delay seen by bus request
system.cpu.toL3Bus.data_queued_cycles          722766                       # total number of queued cycles for all requests
system.cpu.toL3Bus.data_requests               684132                       # number of transmissions on bus
system.cpu.toL3Bus.null_grants                      0                       # number of null grants (wasted cycles)
system.cpuinst_class_dist.start_dist
                   All ops ready            0      0.00%            # Operand status at dispatch
                One op not ready            0      0.00%            # Operand status at dispatch
           None rdy, mult chains            0      0.00%            # Operand status at dispatch
           None rdy, one chained            0      0.00%            # Operand status at dispatch
        None rdy, all self-timed            0      0.00%            # Operand status at dispatch
system.cpuinst_class_dist.end_dist
system.kern.fnCalls                                 0                       # all fn calls being tracked
system.ram.accesses                            494699                       # total number of accesses
system.ram.bytes_requested                          0                       # total number of bytes requested
system.ram.bytes_sent                               0                       # total number of bytes sent
system.ram.compressed_responses                     0                       # total number of accesses that are compressed
system.toMemBus.addr_idle_cycles           7199321954                       # number of cycles bus was idle
system.toMemBus.addr_idle_fraction           0.999921                       # fraction of time addr bus was idle
system.toMemBus.addr_queued                 33.558497                       # average queueing delay seen by bus request
system.toMemBus.addr_queued_cycles           18803866                       # total number of queued cycles for all requests
system.toMemBus.addr_requests                  560331                       # number of transmissions on bus
system.toMemBus.bus_blocked                         0                       # number of times bus was blocked
system.toMemBus.bus_blocked_cycles                  0                       # number of cycles bus was blocked
system.toMemBus.bus_blocked_fraction                0                       # fraction of time bus was blocked
system.toMemBus.data_idle_cycles           7197886927                       # number of cycles bus was idle
system.toMemBus.data_idle_fraction           0.999721                       # fraction of time data bus was idle
system.toMemBus.data_queued                  7.311816                       # average queueing delay seen by bus request
system.toMemBus.data_queued_cycles            2370827                       # total number of queued cycles for all requests
system.toMemBus.data_requests                  324246                       # number of transmissions on bus
system.toMemBus.null_grants                         0                       # number of null grants (wasted cycles)
system.tsunami.ethernet.coalescedRxDesc  <err: div-0>                       # average number of RxDesc's coalesced into each post
system.tsunami.ethernet.coalescedRxIdle  <err: div-0>                       # average number of RxIdle's coalesced into each post
system.tsunami.ethernet.coalescedRxOk    <err: div-0>                       # average number of RxOk's coalesced into each post
system.tsunami.ethernet.coalescedRxOrn   <err: div-0>                       # average number of RxOrn's coalesced into each post
system.tsunami.ethernet.coalescedSwi     <err: div-0>                       # average number of Swi's coalesced into each post
system.tsunami.ethernet.coalescedTotal   <err: div-0>                       # average number of interrupts coalesced into each post
system.tsunami.ethernet.coalescedTxDesc  <err: div-0>                       # average number of TxDesc's coalesced into each post
system.tsunami.ethernet.coalescedTxIdle  <err: div-0>                       # average number of TxIdle's coalesced into each post
system.tsunami.ethernet.coalescedTxOk    <err: div-0>                       # average number of TxOk's coalesced into each post
system.tsunami.ethernet.descDMAReads                0                       # Number of descriptors the device read w/ DMA
system.tsunami.ethernet.descDMAWrites               0                       # Number of descriptors the device wrote w/ DMA
system.tsunami.ethernet.descDmaReadBytes            0                       # number of descriptor bytes read w/ DMA
system.tsunami.ethernet.descDmaWriteBytes            0                       # number of descriptor bytes write w/ DMA
system.tsunami.ethernet.dma.avg_large_transaction_latency <err: div-0>                       # The average latency of large transactions.
system.tsunami.ethernet.dma.avg_small_transaction_latency <err: div-0>                       # The average latency of small transactions.
system.tsunami.ethernet.dma.avg_transaction_latency <err: div-0>                       # The average latency of all transactions.
system.tsunami.ethernet.dma.bytes_transfered            0                       # Total bytes sent
system.tsunami.ethernet.dma.large_transaction_latency            0                       # The total cycle latency of all large transactions.
system.tsunami.ethernet.dma.large_transactions            0                       # Total number of transactions greater than the block size.
system.tsunami.ethernet.dma.packets_sent            0                       # number of packets sent(blocks)
system.tsunami.ethernet.dma.requests                0                       # Total number of dma requests made
system.tsunami.ethernet.dma.round_trip_latency <err: div-0>                       # Average Round-Trip latency
system.tsunami.ethernet.dma.small_transaction_latency            0                       # The total cycle latency of all small transactions.
system.tsunami.ethernet.dma.small_transactions            0                       # Total number of transactions less than the block size.
system.tsunami.ethernet.dma.total_cycle_latency            0                       # sum of all latencies
system.tsunami.ethernet.dma.transaction_latency            0                       # The total cycle latency of all transactions.
system.tsunami.ethernet.droppedPackets              0                       # number of packets dropped
system.tsunami.ethernet.postedInterrupts            0                       # number of posts to CPU
system.tsunami.ethernet.postedRxDesc                0                       # number of RxDesc interrupts posted to CPU
system.tsunami.ethernet.postedRxIdle                0                       # number of rxIdle interrupts posted to CPU
system.tsunami.ethernet.postedRxOk                  0                       # number of RxOk interrupts posted to CPU
system.tsunami.ethernet.postedRxOrn                 0                       # number of RxOrn posted to CPU
system.tsunami.ethernet.postedSwi                   0                       # number of software interrupts posted to CPU
system.tsunami.ethernet.postedTxDesc                0                       # number of TxDesc interrupts posted to CPU
system.tsunami.ethernet.postedTxIdle                0                       # number of TxIdle interrupts posted to CPU
system.tsunami.ethernet.postedTxOk                  0                       # number of TxOk interrupts posted to CPU
system.tsunami.ethernet.totalRxDesc                 0                       # number of total RxDesc written to ISR
system.tsunami.ethernet.totalRxIdle                 0                       # number of total RxIdle written to ISR
system.tsunami.ethernet.totalRxOk                   0                       # number of total RxOk written to ISR
system.tsunami.ethernet.totalRxOrn                  0                       # number of total RxOrn written to ISR
system.tsunami.ethernet.totalSwi                    0                       # number of total Swi written to ISR
system.tsunami.ethernet.totalTxDesc                 0                       # number of total TxDesc written to ISR
system.tsunami.ethernet.totalTxIdle                 0                       # number of total TxIdle written to ISR
system.tsunami.ethernet.totalTxOk                   0                       # number of total TxOk written to ISR
system.tsunami.ide.dma.avg_large_transaction_latency   527.914894                       # The average latency of large transactions.
system.tsunami.ide.dma.avg_small_transaction_latency    44.012987                       # The average latency of small transactions.
system.tsunami.ide.dma.avg_transaction_latency   387.309434                       # The average latency of all transactions.
system.tsunami.ide.dma.bytes_transfered       2531440                       # Total bytes sent
system.tsunami.ide.dma.large_transaction_latency       198496                       # The total cycle latency of all large transactions.
system.tsunami.ide.dma.large_transactions          376                       # Total number of transactions greater than the block size.
system.tsunami.ide.dma.packets_sent             39562                       # number of packets sent(blocks)
system.tsunami.ide.dma.requests                   530                       # Total number of dma requests made
system.tsunami.ide.dma.round_trip_latency   285.797027                       # Average Round-Trip latency
system.tsunami.ide.dma.small_transaction_latency         6778                       # The total cycle latency of all small transactions.
system.tsunami.ide.dma.small_transactions          154                       # Total number of transactions less than the block size.
system.tsunami.ide.dma.total_cycle_latency     11306702                       # sum of all latencies
system.tsunami.ide.dma.transaction_latency       205274                       # The total cycle latency of all transactions.

---------- End Simulation Statistics   ----------
