
---------- Begin Simulation Statistics ----------
host_inst_rate                                  21857                       # Simulator instruction rate (inst/s)
host_mem_usage                                 200828                       # Number of bytes of host memory used
host_seconds                                 42182.65                       # Real time elapsed on the host
host_tick_rate                                 174301                       # Simulator tick rate (ticks/s)
sim_freq                                   4000000000                       # Frequency of simulated ticks
sim_insts                                   921968140                       # Number of instructions simulated
sim_seconds                                  1.838117                       # Number of seconds simulated
sim_ticks                                  7352469841                       # Number of ticks simulated
system.cpu0.COM:IPB                          3.098876                       # Committed instructions per branch
system.cpu0.COM:IPC                          0.104435                       # Committed instructions per cycle
system.cpu0.COM:branches                    247785752                       # Number of branches committed
system.cpu0.COM:bw_lim_avg               <err: div-0>                       # Avg number not committed in cycles BW limited
system.cpu0.COM:bw_lim_events                       0                       # number cycles where commit BW limit reached
system.cpu0.COM:bw_lim_rate                    0.0000                       # Average number not committed due to BW (over all cycles)
system.cpu0.COM:bw_lim_stdev_0_mean      <err: div-0>                       # standard deviation of bw_lim_avg value
system.cpu0.COM:bw_lim_stdev_0_stdev     <err: div-0>                       # standard deviation of bw_lim_avg value
**Ignore: system.cpu0.COM:bw_lim_stdev_0_TOT       0.0000                       # standard deviation of bw_lim_avg value
system.cpu0.COM:bw_limited                          0                       # number of insts not committed due to BW limits
system.cpu0.COM:committed_per_cycle.start_dist                     # Number of insts commited each cycle
system.cpu0.COM:committed_per_cycle.samples    134211800                      
system.cpu0.COM:committed_per_cycle.min_value            0                      
                               0       271423     20.22%           
                               1      5328814    397.05%           
                               2      2182786    162.64%           
                               3     11966576    891.62%           
                               4     30307720   2258.20%           
                               5       578824     43.13%           
                               6     29682627   2211.63%           
                               7     10893697    811.68%           
                               8     42999333   3203.84%           
system.cpu0.COM:committed_per_cycle.max_value            8                      
system.cpu0.COM:committed_per_cycle.end_dist

system.cpu0.COM:count                       767857289                       # Number of instructions committed
system.cpu0.COM:loads                         8265223                       # Number of loads committed
system.cpu0.COM:membars                        201523                       # Number of memory barriers committed
system.cpu0.COM:refs                         13949106                       # Number of memory references committed
system.cpu0.COM:stores                        5683883                       # Number of stores committed
system.cpu0.COM:swp_count                      208130                       # Number of s/w prefetches committed
system.cpu0.DDQ:count                     20743817435                       # cum count of instructions
system.cpu0.DDQ:rate                                3                       # average number of instructions
system.cpu0.DIS:chain_creation.start_dist
     Inst has no outstanding IDEPS            0      0.00%            # Reason that chain head was created
      IDEP chain reached max depth            0      0.00%            # Reason that chain head was created
                    Inst is a load            0      0.00%            # Reason that chain head was created
  Chain has multiple chained IDEPS            0      0.00%            # Reason that chain head was created
system.cpu0.DIS:chain_creation.end_dist
system.cpu0.DIS:chain_head_frac                     0                       # fraction of insts that are chain heads
system.cpu0.DIS:chain_heads                         0                       # number insts that are chain heads
system.cpu0.DIS:chains_insuf                        0                       # number of times thread had insuf chains
system.cpu0.DIS:chains_insuf_rate                   0                       # rate that thread had insuf chains
system.cpu0.DIS:count                       788090890                       # cumulative count of dispatched insts
system.cpu0.DIS:insufficient_chains                 0                       # Number of instances where dispatch stopped
system.cpu0.DIS:mod_n_stall_avg_free         no value                       # avg free slots per cycle
system.cpu0.DIS:mod_n_stall_frac                    0                       # avg stalls per cycle
system.cpu0.DIS:mod_n_stall_free                    0                       # free slots when dispatch stalled due to mod-n
system.cpu0.DIS:mod_n_stalls                        0                       # cycles where dispatch stalled due to mod-n
system.cpu0.DIS:one_rdy_insts                       0                       # number of 2-op insts w/ one rdy op
system.cpu0.DIS:one_rdy_ratio                no value                       # fraction of 2-op insts w/ one ready op
system.cpu0.DIS:op_count                    807080530                       # number of operations dispatched
system.cpu0.DIS:op_rate                      0.109770                       # dispatched operations per cycle
system.cpu0.DIS:rate                         0.107187                       # dispatched_insts per cycle
system.cpu0.DIS:second_choice_clust                 0                       # Number of instructions dispatched to second-choice cluster
system.cpu0.DIS:second_choice_stall                 0                       # Number of instructions stalled when first choice not available
system.cpu0.DIS:serialize_stall_cycles        5326566                       # count of cycles dispatch stalled for serializing inst
system.cpu0.DIS:serializing_insts              350329                       # count of serializing insts dispatched
system.cpu0.DIS:two_input_insts                     0                       # Number of two input instructions queued
system.cpu0.DIS:two_input_ratio                     0                       # fraction of all insts having 2 inputs
system.cpu0.FETCH:branch_count              264700516                       # Number of branches fetched
system.cpu0.FETCH:branch_rate                0.036002                       # Number of branch fetches per cycle
system.cpu0.FETCH:chance_pct                        1                       # Percentage of all fetch chances
system.cpu0.FETCH:chances                   141165384                       # Number of fetch opportunities
system.cpu0.FETCH:choice                    141165384                       # Number of times we fetched from our first choice
system.cpu0.FETCH:count                     852275587                       # Number of instructions fetched
system.cpu0.FETCH:decisions                 141165384                       # number of times the fetch stage chose between threads
system.cpu0.FETCH:idle_cycles              7211304458                       # number of cycles where fetch stage was idle
system.cpu0.FETCH:idle_icache_blocked_cycles            0                       # number of cycles where fetch was idle due to icache blocked
system.cpu0.FETCH:idle_rate                     98.08                       # percent of cycles fetch stage was idle
system.cpu0.FETCH:prio_changes                      0                       # Number of times priorities were changed
system.cpu0.FETCH:rate                       0.115917                       # Number of inst fetches per cycle
system.cpu0.FETCH:rate_dist.start_dist                         # Number of instructions fetched each cycle (Total)
system.cpu0.FETCH:rate_dist.samples         141165384                      
system.cpu0.FETCH:rate_dist.min_value               0                      
                               0       123053      8.72%           
                               1      1594816    112.98%           
                               2       682663     48.36%           
                               3      2504050    177.38%           
                               4       882695     62.53%           
                               5       468297     33.17%           
                               6    121373350   8597.95%           
                               7       600750     42.56%           
                               8     12935710    916.35%           
system.cpu0.FETCH:rate_dist.max_value               8                      
system.cpu0.FETCH:rate_dist.end_dist

system.cpu0.FETCH:rate_dist_0.start_dist                       # Number of instructions fetched each cycle (Thread 0)
system.cpu0.FETCH:rate_dist_0.samples       141165384                      
system.cpu0.FETCH:rate_dist_0.min_value             0                      
                               0       123053      8.72%           
                               1      1594816    112.98%           
                               2       682663     48.36%           
                               3      2504050    177.38%           
                               4       882695     62.53%           
                               5       468297     33.17%           
                               6    121373350   8597.95%           
                               7       600750     42.56%           
                               8     12935710    916.35%           
system.cpu0.FETCH:rate_dist_0.max_value             8                      
system.cpu0.FETCH:rate_dist_0.end_dist

system.cpu0.IFQ:count                      5281763072                       # cumulative IFQ occupancy
system.cpu0.IFQ:full_count                  158931583                       # cumulative IFQ full count
system.cpu0.IFQ:full_rate                    2.161608                       # fraction of time (cycle's) IFQ was full
system.cpu0.IFQ:latency                      6.701972                       # avg IFQ occupant latency (cycle's)
system.cpu0.IFQ:occupancy                    0.718366                       # avg IFQ occupancy (inst's)
system.cpu0.IFQ:qfull_iq_occ               1722366222                       # Number of insts in IQ when fetch-queue full
system.cpu0.IFQ:qfull_iq_occ_dist_0.start_dist                     # Number of insts in IQ when fetch-queue full
system.cpu0.IFQ:qfull_iq_occ_dist_0.samples     33210878                      
system.cpu0.IFQ:qfull_iq_occ_dist_0.min_value            0                      
                               0      4963851   1494.65%           
                              10       708406    213.31%           
                              20       508383    153.08%           
                              30       635673    191.41%           
                              40       772473    232.60%           
                              50       355138    106.93%           
                              60     25266954   7608.04%           
system.cpu0.IFQ:qfull_iq_occ_dist_0.max_value           64                      
system.cpu0.IFQ:qfull_iq_occ_dist_0.end_dist

system.cpu0.IFQ:qfull_rob_occ              3094796875                       # Number of insts in ROB when fetch-queue full
system.cpu0.IFQ:qfull_rob_occ_dist_0.start_dist                     # Number of insts in ROB when fetch-queue full
system.cpu0.IFQ:qfull_rob_occ_dist_0.samples     33210878                      
system.cpu0.IFQ:qfull_rob_occ_dist_0.min_value            1                      
                               0       417906    125.83%           
                              10       650609    195.90%           
                              20       508806    153.20%           
                              30       182722     55.02%           
                              40       123109     37.07%           
                              50        92217     27.77%           
                              60      3096696    932.43%           
                              70      1335461    402.12%           
                              80       570694    171.84%           
                              90     20713923   6237.09%           
                             100       400791    120.68%           
                             110       536821    161.64%           
                             120      4581123   1379.40%           
                             130            0      0.00%           
system.cpu0.IFQ:qfull_rob_occ_dist_0.max_value          128                      
system.cpu0.IFQ:qfull_rob_occ_dist_0.end_dist

system.cpu0.IQ:cap_events                           0                       # number of cycles where IQ cap was active
system.cpu0.IQ:cap_inst                             0                       # number of instructions held up by IQ cap
system.cpu0.IQ:residence:(null).start_dist                     # cycles from dispatch to issue
system.cpu0.IQ:residence:(null).samples          4226                      
system.cpu0.IQ:residence:(null).min_value            1                      
                               0         4112   9730.24%   9730.24%
                               2          113    267.39%   9997.63%
                               4            0      0.00%   9997.63%
                               6            0      0.00%   9997.63%
                               8            1      2.37%  10000.00%
                              10            0      0.00%  10000.00%
                              12            0      0.00%  10000.00%
                              14            0      0.00%  10000.00%
                              16            0      0.00%  10000.00%
                              18            0      0.00%  10000.00%
                              20            0      0.00%  10000.00%
                              22            0      0.00%  10000.00%
                              24            0      0.00%  10000.00%
                              26            0      0.00%  10000.00%
                              28            0      0.00%  10000.00%
                              30            0      0.00%  10000.00%
                              32            0      0.00%  10000.00%
                              34            0      0.00%  10000.00%
                              36            0      0.00%  10000.00%
                              38            0      0.00%  10000.00%
                              40            0      0.00%  10000.00%
                              42            0      0.00%  10000.00%
                              44            0      0.00%  10000.00%
                              46            0      0.00%  10000.00%
                              48            0      0.00%  10000.00%
                              50            0      0.00%  10000.00%
                              52            0      0.00%  10000.00%
                              54            0      0.00%  10000.00%
                              56            0      0.00%  10000.00%
                              58            0      0.00%  10000.00%
                              60            0      0.00%  10000.00%
                              62            0      0.00%  10000.00%
                              64            0      0.00%  10000.00%
                              66            0      0.00%  10000.00%
                              68            0      0.00%  10000.00%
                              70            0      0.00%  10000.00%
                              72            0      0.00%  10000.00%
                              74            0      0.00%  10000.00%
                              76            0      0.00%  10000.00%
                              78            0      0.00%  10000.00%
                              80            0      0.00%  10000.00%
                              82            0      0.00%  10000.00%
                              84            0      0.00%  10000.00%
                              86            0      0.00%  10000.00%
                              88            0      0.00%  10000.00%
                              90            0      0.00%  10000.00%
                              92            0      0.00%  10000.00%
                              94            0      0.00%  10000.00%
                              96            0      0.00%  10000.00%
                              98            0      0.00%  10000.00%
system.cpu0.IQ:residence:(null).max_value            9                      
system.cpu0.IQ:residence:(null).end_dist

system.cpu0.IQ:residence:IntAlu.start_dist                     # cycles from dispatch to issue
system.cpu0.IQ:residence:IntAlu.samples     758931823                      
system.cpu0.IQ:residence:IntAlu.min_value            1                      
                               0      9308384    122.65%    122.65%
                               2      6319773     83.27%    205.92%
                               4      4436558     58.46%    264.38%
                               6      3105418     40.92%    305.30%
                               8     64322210    847.54%   1152.84%
                              10    535807670   7060.02%   8212.86%
                              12    125526462   1653.99%   9866.85%
                              14      1175710     15.49%   9882.34%
                              16       942688     12.42%   9894.76%
                              18       646913      8.52%   9903.28%
                              20       473480      6.24%   9909.52%
                              22       367379      4.84%   9914.36%
                              24       361571      4.76%   9919.13%
                              26       317558      4.18%   9923.31%
                              28       270551      3.56%   9926.88%
                              30       255756      3.37%   9930.25%
                              32       242645      3.20%   9933.44%
                              34       232135      3.06%   9936.50%
                              36       154619      2.04%   9938.54%
                              38       150767      1.99%   9940.53%
                              40       150333      1.98%   9942.51%
                              42        79706      1.05%   9943.56%
                              44       120611      1.59%   9945.15%
                              46        49274      0.65%   9945.80%
                              48        55562      0.73%   9946.53%
                              50       108305      1.43%   9947.96%
                              52       136190      1.79%   9949.75%
                              54       207245      2.73%   9952.48%
                              56        45211      0.60%   9953.08%
                              58        41550      0.55%   9953.62%
                              60        37865      0.50%   9954.12%
                              62       144135      1.90%   9956.02%
                              64       125157      1.65%   9957.67%
                              66        43822      0.58%   9958.25%
                              68        42364      0.56%   9958.81%
                              70        60239      0.79%   9959.60%
                              72        43641      0.58%   9960.18%
                              74        30563      0.40%   9960.58%
                              76        23834      0.31%   9960.89%
                              78        44438      0.59%   9961.48%
                              80        22578      0.30%   9961.78%
                              82        31051      0.41%   9962.18%
                              84        30835      0.41%   9962.59%
                              86        27215      0.36%   9962.95%
                              88        25694      0.34%   9963.29%
                              90        15681      0.21%   9963.50%
                              92        13895      0.18%   9963.68%
                              94        27634      0.36%   9964.04%
                              96        38631      0.51%   9964.55%
                              98        10266      0.14%   9964.69%
system.cpu0.IQ:residence:IntAlu.overflows      2680051                      
system.cpu0.IQ:residence:IntAlu.max_value        13139                      
system.cpu0.IQ:residence:IntAlu.end_dist

system.cpu0.IQ:residence:IntMult.start_dist                     # cycles from dispatch to issue
system.cpu0.IQ:residence:IntMult.samples        60757                      
system.cpu0.IQ:residence:IntMult.min_value            1                      
                               0          992    163.27%    163.27%
                               2         2622    431.56%    594.83%
                               4         5984    984.91%   1579.74%
                               6         4830    794.97%   2374.71%
                               8         4078    671.20%   3045.90%
                              10         6325   1041.03%   4086.94%
                              12         4180    687.99%   4774.92%
                              14         1692    278.49%   5053.41%
                              16          308     50.69%   5104.10%
                              18         1505    247.71%   5351.81%
                              20          661    108.79%   5460.61%
                              22          859    141.38%   5601.99%
                              24         2932    482.58%   6084.57%
                              26          549     90.36%   6174.93%
                              28         1232    202.77%   6377.70%
                              30          809    133.15%   6510.85%
                              32          112     18.43%   6529.29%
                              34          546     89.87%   6619.15%
                              36         1165    191.75%   6810.90%
                              38           84     13.83%   6824.73%
                              40        13007   2140.82%   8965.55%
                              42          339     55.80%   9021.35%
                              44          448     73.74%   9095.08%
                              46           69     11.36%   9106.44%
                              48          119     19.59%   9126.03%
                              50           46      7.57%   9133.60%
                              52           10      1.65%   9135.24%
                              54           54      8.89%   9144.13%
                              56           77     12.67%   9156.80%
                              58          156     25.68%   9182.48%
                              60          186     30.61%   9213.09%
                              62           12      1.98%   9215.07%
                              64           94     15.47%   9230.54%
                              66           23      3.79%   9234.33%
                              68           24      3.95%   9238.28%
                              70           50      8.23%   9246.51%
                              72           20      3.29%   9249.80%
                              74           18      2.96%   9252.76%
                              76           11      1.81%   9254.57%
                              78           19      3.13%   9257.70%
                              80           13      2.14%   9259.84%
                              82           78     12.84%   9272.68%
                              84           25      4.11%   9276.79%
                              86           59      9.71%   9286.50%
                              88            7      1.15%   9287.65%
                              90           23      3.79%   9291.44%
                              92           12      1.98%   9293.41%
                              94           21      3.46%   9296.87%
                              96           16      2.63%   9299.50%
                              98            8      1.32%   9300.82%
system.cpu0.IQ:residence:IntMult.overflows         4248                      
system.cpu0.IQ:residence:IntMult.max_value          496                      
system.cpu0.IQ:residence:IntMult.end_dist

system.cpu0.IQ:residence:IntDiv.start_dist                     # cycles from dispatch to issue
system.cpu0.IQ:residence:IntDiv.samples             0                      
system.cpu0.IQ:residence:IntDiv.min_value            0                      
                               0            0                      
                               2            0                      
                               4            0                      
                               6            0                      
                               8            0                      
                              10            0                      
                              12            0                      
                              14            0                      
                              16            0                      
                              18            0                      
                              20            0                      
                              22            0                      
                              24            0                      
                              26            0                      
                              28            0                      
                              30            0                      
                              32            0                      
                              34            0                      
                              36            0                      
                              38            0                      
                              40            0                      
                              42            0                      
                              44            0                      
                              46            0                      
                              48            0                      
                              50            0                      
                              52            0                      
                              54            0                      
                              56            0                      
                              58            0                      
                              60            0                      
                              62            0                      
                              64            0                      
                              66            0                      
                              68            0                      
                              70            0                      
                              72            0                      
                              74            0                      
                              76            0                      
                              78            0                      
                              80            0                      
                              82            0                      
                              84            0                      
                              86            0                      
                              88            0                      
                              90            0                      
                              92            0                      
                              94            0                      
                              96            0                      
                              98            0                      
system.cpu0.IQ:residence:IntDiv.max_value            0                      
system.cpu0.IQ:residence:IntDiv.end_dist

system.cpu0.IQ:residence:FloatAdd.start_dist                     # cycles from dispatch to issue
system.cpu0.IQ:residence:FloatAdd.samples         6447                      
system.cpu0.IQ:residence:FloatAdd.min_value            1                      
                               0         1051   1630.22%   1630.22%
                               2          809   1254.85%   2885.06%
                               4         1139   1766.71%   4651.78%
                               6         1457   2259.97%   6911.74%
                               8            1      1.55%   6913.29%
                              10            2      3.10%   6916.40%
                              12            1      1.55%   6917.95%
                              14            1      1.55%   6919.50%
                              16           29     44.98%   6964.48%
                              18           31     48.08%   7012.56%
                              20            4      6.20%   7018.77%
                              22            2      3.10%   7021.87%
                              24         1860   2885.06%   9906.93%
                              26           12     18.61%   9925.55%
                              28            0      0.00%   9925.55%
                              30            0      0.00%   9925.55%
                              32            0      0.00%   9925.55%
                              34            1      1.55%   9927.10%
                              36            0      0.00%   9927.10%
                              38            0      0.00%   9927.10%
                              40            0      0.00%   9927.10%
                              42            0      0.00%   9927.10%
                              44            0      0.00%   9927.10%
                              46            0      0.00%   9927.10%
                              48            0      0.00%   9927.10%
                              50            0      0.00%   9927.10%
                              52            0      0.00%   9927.10%
                              54            1      1.55%   9928.65%
                              56            0      0.00%   9928.65%
                              58            0      0.00%   9928.65%
                              60            0      0.00%   9928.65%
                              62            1      1.55%   9930.20%
                              64            2      3.10%   9933.30%
                              66           34     52.74%   9986.04%
                              68            0      0.00%   9986.04%
                              70            0      0.00%   9986.04%
                              72            0      0.00%   9986.04%
                              74            0      0.00%   9986.04%
                              76            0      0.00%   9986.04%
                              78            0      0.00%   9986.04%
                              80            0      0.00%   9986.04%
                              82            0      0.00%   9986.04%
                              84            0      0.00%   9986.04%
                              86            0      0.00%   9986.04%
                              88            0      0.00%   9986.04%
                              90            0      0.00%   9986.04%
                              92            0      0.00%   9986.04%
                              94            2      3.10%   9989.14%
                              96            0      0.00%   9989.14%
                              98            0      0.00%   9989.14%
system.cpu0.IQ:residence:FloatAdd.overflows            7                      
system.cpu0.IQ:residence:FloatAdd.max_value          478                      
system.cpu0.IQ:residence:FloatAdd.end_dist

system.cpu0.IQ:residence:FloatCmp.start_dist                     # cycles from dispatch to issue
system.cpu0.IQ:residence:FloatCmp.samples            0                      
system.cpu0.IQ:residence:FloatCmp.min_value            0                      
                               0            0                      
                               2            0                      
                               4            0                      
                               6            0                      
                               8            0                      
                              10            0                      
                              12            0                      
                              14            0                      
                              16            0                      
                              18            0                      
                              20            0                      
                              22            0                      
                              24            0                      
                              26            0                      
                              28            0                      
                              30            0                      
                              32            0                      
                              34            0                      
                              36            0                      
                              38            0                      
                              40            0                      
                              42            0                      
                              44            0                      
                              46            0                      
                              48            0                      
                              50            0                      
                              52            0                      
                              54            0                      
                              56            0                      
                              58            0                      
                              60            0                      
                              62            0                      
                              64            0                      
                              66            0                      
                              68            0                      
                              70            0                      
                              72            0                      
                              74            0                      
                              76            0                      
                              78            0                      
                              80            0                      
                              82            0                      
                              84            0                      
                              86            0                      
                              88            0                      
                              90            0                      
                              92            0                      
                              94            0                      
                              96            0                      
                              98            0                      
system.cpu0.IQ:residence:FloatCmp.max_value            0                      
system.cpu0.IQ:residence:FloatCmp.end_dist

system.cpu0.IQ:residence:FloatCvt.start_dist                     # cycles from dispatch to issue
system.cpu0.IQ:residence:FloatCvt.samples            0                      
system.cpu0.IQ:residence:FloatCvt.min_value            0                      
                               0            0                      
                               2            0                      
                               4            0                      
                               6            0                      
                               8            0                      
                              10            0                      
                              12            0                      
                              14            0                      
                              16            0                      
                              18            0                      
                              20            0                      
                              22            0                      
                              24            0                      
                              26            0                      
                              28            0                      
                              30            0                      
                              32            0                      
                              34            0                      
                              36            0                      
                              38            0                      
                              40            0                      
                              42            0                      
                              44            0                      
                              46            0                      
                              48            0                      
                              50            0                      
                              52            0                      
                              54            0                      
                              56            0                      
                              58            0                      
                              60            0                      
                              62            0                      
                              64            0                      
                              66            0                      
                              68            0                      
                              70            0                      
                              72            0                      
                              74            0                      
                              76            0                      
                              78            0                      
                              80            0                      
                              82            0                      
                              84            0                      
                              86            0                      
                              88            0                      
                              90            0                      
                              92            0                      
                              94            0                      
                              96            0                      
                              98            0                      
system.cpu0.IQ:residence:FloatCvt.max_value            0                      
system.cpu0.IQ:residence:FloatCvt.end_dist

system.cpu0.IQ:residence:FloatMult.start_dist                     # cycles from dispatch to issue
system.cpu0.IQ:residence:FloatMult.samples            0                      
system.cpu0.IQ:residence:FloatMult.min_value            0                      
                               0            0                      
                               2            0                      
                               4            0                      
                               6            0                      
                               8            0                      
                              10            0                      
                              12            0                      
                              14            0                      
                              16            0                      
                              18            0                      
                              20            0                      
                              22            0                      
                              24            0                      
                              26            0                      
                              28            0                      
                              30            0                      
                              32            0                      
                              34            0                      
                              36            0                      
                              38            0                      
                              40            0                      
                              42            0                      
                              44            0                      
                              46            0                      
                              48            0                      
                              50            0                      
                              52            0                      
                              54            0                      
                              56            0                      
                              58            0                      
                              60            0                      
                              62            0                      
                              64            0                      
                              66            0                      
                              68            0                      
                              70            0                      
                              72            0                      
                              74            0                      
                              76            0                      
                              78            0                      
                              80            0                      
                              82            0                      
                              84            0                      
                              86            0                      
                              88            0                      
                              90            0                      
                              92            0                      
                              94            0                      
                              96            0                      
                              98            0                      
system.cpu0.IQ:residence:FloatMult.max_value            0                      
system.cpu0.IQ:residence:FloatMult.end_dist

system.cpu0.IQ:residence:FloatDiv.start_dist                     # cycles from dispatch to issue
system.cpu0.IQ:residence:FloatDiv.samples           64                      
system.cpu0.IQ:residence:FloatDiv.min_value            1                      
                               0            1    156.25%    156.25%
                               2            1    156.25%    312.50%
                               4            0      0.00%    312.50%
                               6           60   9375.00%   9687.50%
                               8            0      0.00%   9687.50%
                              10            0      0.00%   9687.50%
                              12            0      0.00%   9687.50%
                              14            0      0.00%   9687.50%
                              16            0      0.00%   9687.50%
                              18            0      0.00%   9687.50%
                              20            0      0.00%   9687.50%
                              22            1    156.25%   9843.75%
                              24            0      0.00%   9843.75%
                              26            0      0.00%   9843.75%
                              28            0      0.00%   9843.75%
                              30            0      0.00%   9843.75%
                              32            0      0.00%   9843.75%
                              34            0      0.00%   9843.75%
                              36            0      0.00%   9843.75%
                              38            0      0.00%   9843.75%
                              40            0      0.00%   9843.75%
                              42            0      0.00%   9843.75%
                              44            0      0.00%   9843.75%
                              46            0      0.00%   9843.75%
                              48            0      0.00%   9843.75%
                              50            0      0.00%   9843.75%
                              52            0      0.00%   9843.75%
                              54            0      0.00%   9843.75%
                              56            0      0.00%   9843.75%
                              58            0      0.00%   9843.75%
                              60            0      0.00%   9843.75%
                              62            0      0.00%   9843.75%
                              64            0      0.00%   9843.75%
                              66            0      0.00%   9843.75%
                              68            0      0.00%   9843.75%
                              70            0      0.00%   9843.75%
                              72            0      0.00%   9843.75%
                              74            0      0.00%   9843.75%
                              76            0      0.00%   9843.75%
                              78            0      0.00%   9843.75%
                              80            0      0.00%   9843.75%
                              82            0      0.00%   9843.75%
                              84            0      0.00%   9843.75%
                              86            0      0.00%   9843.75%
                              88            0      0.00%   9843.75%
                              90            0      0.00%   9843.75%
                              92            0      0.00%   9843.75%
                              94            0      0.00%   9843.75%
                              96            1    156.25%  10000.00%
                              98            0      0.00%  10000.00%
system.cpu0.IQ:residence:FloatDiv.max_value           97                      
system.cpu0.IQ:residence:FloatDiv.end_dist

system.cpu0.IQ:residence:FloatSqrt.start_dist                     # cycles from dispatch to issue
system.cpu0.IQ:residence:FloatSqrt.samples            0                      
system.cpu0.IQ:residence:FloatSqrt.min_value            0                      
                               0            0                      
                               2            0                      
                               4            0                      
                               6            0                      
                               8            0                      
                              10            0                      
                              12            0                      
                              14            0                      
                              16            0                      
                              18            0                      
                              20            0                      
                              22            0                      
                              24            0                      
                              26            0                      
                              28            0                      
                              30            0                      
                              32            0                      
                              34            0                      
                              36            0                      
                              38            0                      
                              40            0                      
                              42            0                      
                              44            0                      
                              46            0                      
                              48            0                      
                              50            0                      
                              52            0                      
                              54            0                      
                              56            0                      
                              58            0                      
                              60            0                      
                              62            0                      
                              64            0                      
                              66            0                      
                              68            0                      
                              70            0                      
                              72            0                      
                              74            0                      
                              76            0                      
                              78            0                      
                              80            0                      
                              82            0                      
                              84            0                      
                              86            0                      
                              88            0                      
                              90            0                      
                              92            0                      
                              94            0                      
                              96            0                      
                              98            0                      
system.cpu0.IQ:residence:FloatSqrt.max_value            0                      
system.cpu0.IQ:residence:FloatSqrt.end_dist

system.cpu0.IQ:residence:MemRead.start_dist                     # cycles from dispatch to issue
system.cpu0.IQ:residence:MemRead.samples     19776757                      
system.cpu0.IQ:residence:MemRead.min_value            1                      
                               0      3859889   1951.73%   1951.73%
                               2      5288637   2674.17%   4625.90%
                               4      1941282    981.60%   5607.50%
                               6      1361610    688.49%   6295.99%
                               8       858791    434.24%   6730.23%
                              10       891709    450.89%   7181.12%
                              12       540302    273.20%   7454.32%
                              14       435049    219.98%   7674.30%
                              16       288992    146.13%   7820.42%
                              18       209953    106.16%   7926.58%
                              20       141528     71.56%   7998.15%
                              22       134580     68.05%   8066.20%
                              24       156781     79.28%   8145.47%
                              26       151398     76.55%   8222.03%
                              28       131614     66.55%   8288.58%
                              30       122387     61.88%   8350.46%
                              32       105728     53.46%   8403.92%
                              34       105184     53.19%   8457.11%
                              36       102656     51.91%   8509.01%
                              38        62832     31.77%   8540.78%
                              40        77534     39.20%   8579.99%
                              42        31299     15.83%   8595.82%
                              44        32985     16.68%   8612.49%
                              46        84915     42.94%   8655.43%
                              48        39613     20.03%   8675.46%
                              50        81841     41.38%   8716.84%
                              52        33132     16.75%   8733.60%
                              54        34111     17.25%   8750.84%
                              56        32479     16.42%   8767.27%
                              58        23398     11.83%   8779.10%
                              60        52252     26.42%   8805.52%
                              62        30405     15.37%   8820.89%
                              64        93735     47.40%   8868.29%
                              66        23412     11.84%   8880.13%
                              68        26194     13.24%   8893.37%
                              70        27223     13.77%   8907.14%
                              72        26450     13.37%   8920.51%
                              74        19683      9.95%   8930.46%
                              76        18696      9.45%   8939.92%
                              78        22038     11.14%   8951.06%
                              80        29626     14.98%   8966.04%
                              82        14041      7.10%   8973.14%
                              84        12649      6.40%   8979.54%
                              86        18284      9.25%   8988.78%
                              88        12871      6.51%   8995.29%
                              90        27304     13.81%   9009.10%
                              92        21158     10.70%   9019.80%
                              94         7709      3.90%   9023.69%
                              96         9455      4.78%   9028.47%
                              98        11645      5.89%   9034.36%
system.cpu0.IQ:residence:MemRead.overflows      1909718                      
system.cpu0.IQ:residence:MemRead.max_value        17495                      
system.cpu0.IQ:residence:MemRead.end_dist

system.cpu0.IQ:residence:MemWrite.start_dist                     # cycles from dispatch to issue
system.cpu0.IQ:residence:MemWrite.samples     12556236                      
system.cpu0.IQ:residence:MemWrite.min_value            1                      
                               0      2057255   1638.43%   1638.43%
                               2      3771480   3003.67%   4642.10%
                               4      1527825   1216.79%   5858.89%
                               6      1048105    834.73%   6693.62%
                               8       680974    542.34%   7235.96%
                              10       546281    435.07%   7671.02%
                              12       432185    344.20%   8015.22%
                              14       297090    236.61%   8251.83%
                              16       308763    245.90%   8497.74%
                              18       151001    120.26%   8618.00%
                              20       128910    102.67%   8720.66%
                              22       114958     91.55%   8812.22%
                              24       121625     96.86%   8909.08%
                              26        84945     67.65%   8976.73%
                              28        79892     63.63%   9040.36%
                              30        66059     52.61%   9092.97%
                              32        52786     42.04%   9135.01%
                              34        51776     41.24%   9176.25%
                              36        41217     32.83%   9209.07%
                              38        30470     24.27%   9233.34%
                              40        33574     26.74%   9260.08%
                              42        21120     16.82%   9276.90%
                              44        16642     13.25%   9290.15%
                              46        38916     30.99%   9321.14%
                              48        12863     10.24%   9331.39%
                              50       115543     92.02%   9423.41%
                              52        26643     21.22%   9444.63%
                              54        19223     15.31%   9459.94%
                              56        23970     19.09%   9479.03%
                              58        27257     21.71%   9500.74%
                              60        28927     23.04%   9523.77%
                              62        29317     23.35%   9547.12%
                              64       164231    130.80%   9677.92%
                              66        11428      9.10%   9687.02%
                              68         9588      7.64%   9694.66%
                              70        11393      9.07%   9703.73%
                              72         9337      7.44%   9711.17%
                              74        14761     11.76%   9722.92%
                              76        11312      9.01%   9731.93%
                              78        25686     20.46%   9752.39%
                              80        26884     21.41%   9773.80%
                              82         5696      4.54%   9778.33%
                              84        10249      8.16%   9786.50%
                              86         7477      5.95%   9792.45%
                              88         3560      2.84%   9795.29%
                              90         3554      2.83%   9798.12%
                              92         3364      2.68%   9800.80%
                              94         3376      2.69%   9803.49%
                              96         4657      3.71%   9807.19%
                              98         3895      3.10%   9810.30%
system.cpu0.IQ:residence:MemWrite.overflows       238196                      
system.cpu0.IQ:residence:MemWrite.max_value        17503                      
system.cpu0.IQ:residence:MemWrite.end_dist

system.cpu0.IQ:residence:IprAccess.start_dist                     # cycles from dispatch to issue
system.cpu0.IQ:residence:IprAccess.samples       907681                      
system.cpu0.IQ:residence:IprAccess.min_value            1                      
                               0       221851   2444.15%   2444.15%
                               2        38881    428.36%   2872.51%
                               4       175681   1935.49%   4808.00%
                               6       186075   2050.00%   6858.00%
                               8        32453    357.54%   7215.54%
                              10       149588   1648.02%   8863.57%
                              12        19774    217.85%   9081.42%
                              14        15365    169.28%   9250.69%
                              16         7275     80.15%   9330.84%
                              18        10135    111.66%   9442.50%
                              20         9206    101.42%   9543.93%
                              22         4923     54.24%   9598.16%
                              24         8485     93.48%   9691.64%
                              26         7199     79.31%   9770.95%
                              28         3132     34.51%   9805.46%
                              30          603      6.64%   9812.10%
                              32         1603     17.66%   9829.76%
                              34         1546     17.03%   9846.80%
                              36         1619     17.84%   9864.63%
                              38          548      6.04%   9870.67%
                              40         1558     17.16%   9887.84%
                              42          470      5.18%   9893.01%
                              44          958     10.55%   9903.57%
                              46          448      4.94%   9908.50%
                              48         1178     12.98%   9921.48%
                              50          349      3.84%   9925.33%
                              52          849      9.35%   9934.68%
                              54          541      5.96%   9940.64%
                              56          403      4.44%   9945.08%
                              58          319      3.51%   9948.59%
                              60          456      5.02%   9953.62%
                              62          216      2.38%   9956.00%
                              64          725      7.99%   9963.99%
                              66          482      5.31%   9969.30%
                              68          218      2.40%   9971.70%
                              70          276      3.04%   9974.74%
                              72          146      1.61%   9976.35%
                              74          183      2.02%   9978.36%
                              76           59      0.65%   9979.01%
                              78           97      1.07%   9980.08%
                              80          105      1.16%   9981.24%
                              82          122      1.34%   9982.58%
                              84          215      2.37%   9984.95%
                              86           60      0.66%   9985.61%
                              88          100      1.10%   9986.71%
                              90           54      0.59%   9987.31%
                              92           45      0.50%   9987.80%
                              94           53      0.58%   9988.39%
                              96           42      0.46%   9988.85%
                              98           47      0.52%   9989.37%
system.cpu0.IQ:residence:IprAccess.overflows          965                      
system.cpu0.IQ:residence:IprAccess.max_value          371                      
system.cpu0.IQ:residence:IprAccess.end_dist

system.cpu0.IQ:residence:InstPrefetch.start_dist                     # cycles from dispatch to issue
system.cpu0.IQ:residence:InstPrefetch.samples            0                      
system.cpu0.IQ:residence:InstPrefetch.min_value            0                      
                               0            0                      
                               2            0                      
                               4            0                      
                               6            0                      
                               8            0                      
                              10            0                      
                              12            0                      
                              14            0                      
                              16            0                      
                              18            0                      
                              20            0                      
                              22            0                      
                              24            0                      
                              26            0                      
                              28            0                      
                              30            0                      
                              32            0                      
                              34            0                      
                              36            0                      
                              38            0                      
                              40            0                      
                              42            0                      
                              44            0                      
                              46            0                      
                              48            0                      
                              50            0                      
                              52            0                      
                              54            0                      
                              56            0                      
                              58            0                      
                              60            0                      
                              62            0                      
                              64            0                      
                              66            0                      
                              68            0                      
                              70            0                      
                              72            0                      
                              74            0                      
                              76            0                      
                              78            0                      
                              80            0                      
                              82            0                      
                              84            0                      
                              86            0                      
                              88            0                      
                              90            0                      
                              92            0                      
                              94            0                      
                              96            0                      
                              98            0                      
system.cpu0.IQ:residence:InstPrefetch.max_value            0                      
system.cpu0.IQ:residence:InstPrefetch.end_dist

system.cpu0.ISSUE:(null)_delay.start_dist                      # cycles from operands ready to issue
system.cpu0.ISSUE:(null)_delay.samples           4226                      
system.cpu0.ISSUE:(null)_delay.min_value            1                      
                               0         4112   9730.24%   9730.24%
                               2          113    267.39%   9997.63%
                               4            0      0.00%   9997.63%
                               6            0      0.00%   9997.63%
                               8            1      2.37%  10000.00%
                              10            0      0.00%  10000.00%
                              12            0      0.00%  10000.00%
                              14            0      0.00%  10000.00%
                              16            0      0.00%  10000.00%
                              18            0      0.00%  10000.00%
                              20            0      0.00%  10000.00%
                              22            0      0.00%  10000.00%
                              24            0      0.00%  10000.00%
                              26            0      0.00%  10000.00%
                              28            0      0.00%  10000.00%
                              30            0      0.00%  10000.00%
                              32            0      0.00%  10000.00%
                              34            0      0.00%  10000.00%
                              36            0      0.00%  10000.00%
                              38            0      0.00%  10000.00%
                              40            0      0.00%  10000.00%
                              42            0      0.00%  10000.00%
                              44            0      0.00%  10000.00%
                              46            0      0.00%  10000.00%
                              48            0      0.00%  10000.00%
                              50            0      0.00%  10000.00%
                              52            0      0.00%  10000.00%
                              54            0      0.00%  10000.00%
                              56            0      0.00%  10000.00%
                              58            0      0.00%  10000.00%
                              60            0      0.00%  10000.00%
                              62            0      0.00%  10000.00%
                              64            0      0.00%  10000.00%
                              66            0      0.00%  10000.00%
                              68            0      0.00%  10000.00%
                              70            0      0.00%  10000.00%
                              72            0      0.00%  10000.00%
                              74            0      0.00%  10000.00%
                              76            0      0.00%  10000.00%
                              78            0      0.00%  10000.00%
                              80            0      0.00%  10000.00%
                              82            0      0.00%  10000.00%
                              84            0      0.00%  10000.00%
                              86            0      0.00%  10000.00%
                              88            0      0.00%  10000.00%
                              90            0      0.00%  10000.00%
                              92            0      0.00%  10000.00%
                              94            0      0.00%  10000.00%
                              96            0      0.00%  10000.00%
                              98            0      0.00%  10000.00%
system.cpu0.ISSUE:(null)_delay.max_value            9                      
system.cpu0.ISSUE:(null)_delay.end_dist

system.cpu0.ISSUE:IntAlu_delay.start_dist                      # cycles from operands ready to issue
system.cpu0.ISSUE:IntAlu_delay.samples      758931823                      
system.cpu0.ISSUE:IntAlu_delay.min_value            0                      
                               0    516332632   6803.41%   6803.41%
                               2      1947278     25.66%   6829.07%
                               4       364470      4.80%   6833.87%
                               6       150037      1.98%   6835.85%
                               8     62182515    819.34%   7655.19%
                              10    177944601   2344.67%   9999.86%
                              12        10290      0.14%  10000.00%
                              14            0      0.00%  10000.00%
                              16            0      0.00%  10000.00%
                              18            0      0.00%  10000.00%
                              20            0      0.00%  10000.00%
                              22            0      0.00%  10000.00%
                              24            0      0.00%  10000.00%
                              26            0      0.00%  10000.00%
                              28            0      0.00%  10000.00%
                              30            0      0.00%  10000.00%
                              32            0      0.00%  10000.00%
                              34            0      0.00%  10000.00%
                              36            0      0.00%  10000.00%
                              38            0      0.00%  10000.00%
                              40            0      0.00%  10000.00%
                              42            0      0.00%  10000.00%
                              44            0      0.00%  10000.00%
                              46            0      0.00%  10000.00%
                              48            0      0.00%  10000.00%
                              50            0      0.00%  10000.00%
                              52            0      0.00%  10000.00%
                              54            0      0.00%  10000.00%
                              56            0      0.00%  10000.00%
                              58            0      0.00%  10000.00%
                              60            0      0.00%  10000.00%
                              62            0      0.00%  10000.00%
                              64            0      0.00%  10000.00%
                              66            0      0.00%  10000.00%
                              68            0      0.00%  10000.00%
                              70            0      0.00%  10000.00%
                              72            0      0.00%  10000.00%
                              74            0      0.00%  10000.00%
                              76            0      0.00%  10000.00%
                              78            0      0.00%  10000.00%
                              80            0      0.00%  10000.00%
                              82            0      0.00%  10000.00%
                              84            0      0.00%  10000.00%
                              86            0      0.00%  10000.00%
                              88            0      0.00%  10000.00%
                              90            0      0.00%  10000.00%
                              92            0      0.00%  10000.00%
                              94            0      0.00%  10000.00%
                              96            0      0.00%  10000.00%
                              98            0      0.00%  10000.00%
system.cpu0.ISSUE:IntAlu_delay.max_value           12                      
system.cpu0.ISSUE:IntAlu_delay.end_dist

system.cpu0.ISSUE:IntMult_delay.start_dist                     # cycles from operands ready to issue
system.cpu0.ISSUE:IntMult_delay.samples         60757                      
system.cpu0.ISSUE:IntMult_delay.min_value            0                      
                               0        60743   9997.70%   9997.70%
                               2            7      1.15%   9998.85%
                               4            7      1.15%  10000.00%
                               6            0      0.00%  10000.00%
                               8            0      0.00%  10000.00%
                              10            0      0.00%  10000.00%
                              12            0      0.00%  10000.00%
                              14            0      0.00%  10000.00%
                              16            0      0.00%  10000.00%
                              18            0      0.00%  10000.00%
                              20            0      0.00%  10000.00%
                              22            0      0.00%  10000.00%
                              24            0      0.00%  10000.00%
                              26            0      0.00%  10000.00%
                              28            0      0.00%  10000.00%
                              30            0      0.00%  10000.00%
                              32            0      0.00%  10000.00%
                              34            0      0.00%  10000.00%
                              36            0      0.00%  10000.00%
                              38            0      0.00%  10000.00%
                              40            0      0.00%  10000.00%
                              42            0      0.00%  10000.00%
                              44            0      0.00%  10000.00%
                              46            0      0.00%  10000.00%
                              48            0      0.00%  10000.00%
                              50            0      0.00%  10000.00%
                              52            0      0.00%  10000.00%
                              54            0      0.00%  10000.00%
                              56            0      0.00%  10000.00%
                              58            0      0.00%  10000.00%
                              60            0      0.00%  10000.00%
                              62            0      0.00%  10000.00%
                              64            0      0.00%  10000.00%
                              66            0      0.00%  10000.00%
                              68            0      0.00%  10000.00%
                              70            0      0.00%  10000.00%
                              72            0      0.00%  10000.00%
                              74            0      0.00%  10000.00%
                              76            0      0.00%  10000.00%
                              78            0      0.00%  10000.00%
                              80            0      0.00%  10000.00%
                              82            0      0.00%  10000.00%
                              84            0      0.00%  10000.00%
                              86            0      0.00%  10000.00%
                              88            0      0.00%  10000.00%
                              90            0      0.00%  10000.00%
                              92            0      0.00%  10000.00%
                              94            0      0.00%  10000.00%
                              96            0      0.00%  10000.00%
                              98            0      0.00%  10000.00%
system.cpu0.ISSUE:IntMult_delay.max_value            4                      
system.cpu0.ISSUE:IntMult_delay.end_dist

system.cpu0.ISSUE:IntDiv_delay.start_dist                      # cycles from operands ready to issue
system.cpu0.ISSUE:IntDiv_delay.samples              0                      
system.cpu0.ISSUE:IntDiv_delay.min_value            0                      
                               0            0                      
                               2            0                      
                               4            0                      
                               6            0                      
                               8            0                      
                              10            0                      
                              12            0                      
                              14            0                      
                              16            0                      
                              18            0                      
                              20            0                      
                              22            0                      
                              24            0                      
                              26            0                      
                              28            0                      
                              30            0                      
                              32            0                      
                              34            0                      
                              36            0                      
                              38            0                      
                              40            0                      
[...]
system.cpu1.l3.demand_misses                    37300                       # number of demand (read+write) misses
system.cpu1.l3.demand_mshr_hits                     0                       # number of demand (read+write) MSHR hits
system.cpu1.l3.demand_mshr_miss_latency       2606748                       # number of demand (read+write) MSHR miss cycles
system.cpu1.l3.demand_mshr_miss_rate         0.428140                       # mshr miss rate for demand accesses
system.cpu1.l3.demand_mshr_misses               37300                       # number of demand (read+write) MSHR misses
system.cpu1.l3.fast_writes                          0                       # number of fast writes performed
system.cpu1.l3.mshr_cap_events                      0                       # number of times MSHR cap was activated
system.cpu1.l3.no_allocate_misses                   0                       # Number of misses that were no-allocate
system.cpu1.l3.overall_accesses                114923                       # number of overall (read+write) accesses
system.cpu1.l3.overall_avg_miss_latency    107.316159                       # average overall miss latency
system.cpu1.l3.overall_avg_mshr_miss_latency    69.886005                       # average overall mshr miss latency
system.cpu1.l3.overall_avg_mshr_uncacheable_latency    89.665039                       # average overall mshr uncacheable latency
system.cpu1.l3.overall_hits                     77619                       # number of overall hits
system.cpu1.l3.overall_miss_latency           4003322                       # number of overall miss cycles
system.cpu1.l3.overall_miss_rate             0.324600                       # miss rate for overall accesses
system.cpu1.l3.overall_misses                   37304                       # number of overall misses
system.cpu1.l3.overall_mshr_hits                    0                       # number of overall MSHR hits
system.cpu1.l3.overall_mshr_miss_latency      2606748                       # number of overall MSHR miss cycles
system.cpu1.l3.overall_mshr_miss_rate        0.324565                       # mshr miss rate for overall accesses
system.cpu1.l3.overall_mshr_misses              37300                       # number of overall MSHR misses
system.cpu1.l3.overall_mshr_uncacheable_latency       312124                       # number of overall MSHR uncacheable cycles
system.cpu1.l3.overall_mshr_uncacheable_misses         3481                       # number of overall MSHR uncacheable misses
system.cpu1.l3.prefetcher.num_hwpf_already_in_cache            0                       # number of hwpf that were already in the cache
system.cpu1.l3.prefetcher.num_hwpf_already_in_mshr            0                       # number of hwpf that were already in mshr
system.cpu1.l3.prefetcher.num_hwpf_already_in_prefetcher            0                       # number of hwpf that were already in the prefetch queue
system.cpu1.l3.prefetcher.num_hwpf_evicted            0                       # number of hwpf removed due to no buffer left
system.cpu1.l3.prefetcher.num_hwpf_identified            0                       # number of hwpf identified
system.cpu1.l3.prefetcher.num_hwpf_issued            0                       # number of hwpf issued
system.cpu1.l3.prefetcher.num_hwpf_removed_MSHR_hit            0                       # number of hwpf removed because MSHR allocated
system.cpu1.l3.prefetcher.num_hwpf_span_page            0                       # number of hwpf spanning a virtual page
system.cpu1.l3.prefetcher.num_hwpf_squashed_from_miss            0                       # number of hwpf that got squashed due to a miss aborting calculation time
system.cpu1.l3.read_accesses                    87121                       # number of read accesses(hits+misses)
system.cpu1.l3.read_avg_miss_latency       107.327668                       # average read miss latency
system.cpu1.l3.read_avg_mshr_miss_latency    69.886005                       # average read mshr miss latency
system.cpu1.l3.read_avg_mshr_uncacheable_latency    30.305882                       # average read mshr uncacheable latency
system.cpu1.l3.read_hits                        49821                       # number of read hits
system.cpu1.l3.read_miss_latency              4003322                       # number of read miss cycles
system.cpu1.l3.read_miss_rate                0.428140                       # miss rate for read accesses
system.cpu1.l3.read_misses                      37300                       # number of read misses
system.cpu1.l3.read_mshr_miss_latency         2606748                       # number of read MSHR miss cycles
system.cpu1.l3.read_mshr_miss_rate           0.428140                       # mshr miss rate for read accesses
system.cpu1.l3.read_mshr_misses                 37300                       # number of read MSHR misses
system.cpu1.l3.read_mshr_uncacheable               85                       # number of read MSHR uncacheable
system.cpu1.l3.read_mshr_uncacheable_latency         2576                       # number of read MSHR uncacheable cycles
system.cpu1.l3.replacements                      6998                       # number of replacements
system.cpu1.l3.sampled_refs                     36831                       # Sample count of references to valid blocks.
system.cpu1.l3.soft_prefetch_mshr_full              0                       # number of mshr full events for SW prefetching instrutions
system.cpu1.l3.tagsinuse                  5032.550331                       # Cycle average of tags in use
system.cpu1.l3.total_refs                       76514                       # Total number of references to valid blocks.
system.cpu1.l3.warmup_cycle                         0                       # Cycle when the warmup percentage was hit.
system.cpu1.l3.write_avg_mshr_uncacheable_latency    91.150766                       # average write mshr uncacheable latency
system.cpu1.l3.write_mshr_uncacheable            3396                       # number of write MSHR uncacheable
system.cpu1.l3.write_mshr_uncacheable_latency       309548                       # number of write MSHR uncacheable cycles
system.cpu1.l3.writeback_accesses               27802                       # number of writeback accesses(hits+misses)
system.cpu1.l3.writeback_hits                   27798                       # number of writeback hits
system.cpu1.l3.writeback_miss_rate           0.000144                       # miss rate for writeback accesses
system.cpu1.l3.writeback_misses                     4                       # number of writeback misses
system.cpu1.l3.writeback_mshr_miss_rate      0.000144                       # mshr miss rate for writeback accesses
system.cpu1.l3.writeback_mshr_misses                4                       # number of writeback MSHR misses
system.cpu1.l3.writebacks                        3451                       # number of writebacks
system.cpu1.numCycles                      7352187940                       # number of cpu cycles simulated
system.cpu1.toL2Bus.addr_idle_cycles       7351674817                       # number of cycles bus was idle
system.cpu1.toL2Bus.addr_idle_fraction       0.999892                       # fraction of time addr bus was idle
system.cpu1.toL2Bus.addr_queued              3.353599                       # average queueing delay seen by bus request
system.cpu1.toL2Bus.addr_queued_cycles        2666131                       # total number of queued cycles for all requests
system.cpu1.toL2Bus.addr_requests              795006                       # number of transmissions on bus
system.cpu1.toL2Bus.bus_blocked                    71                       # number of times bus was blocked
system.cpu1.toL2Bus.bus_blocked_cycles          18817                       # number of cycles bus was blocked
system.cpu1.toL2Bus.bus_blocked_fraction     0.000003                       # fraction of time bus was blocked
system.cpu1.toL2Bus.data_idle_cycles       7351717599                       # number of cycles bus was idle
system.cpu1.toL2Bus.data_idle_fraction       0.999898                       # fraction of time data bus was idle
system.cpu1.toL2Bus.data_queued              1.017804                       # average queueing delay seen by bus request
system.cpu1.toL2Bus.data_queued_cycles         631005                       # total number of queued cycles for all requests
system.cpu1.toL2Bus.data_requests              619967                       # number of transmissions on bus
system.cpu1.toL2Bus.null_grants                 19769                       # number of null grants (wasted cycles)
system.cpu1.toL3Bus.addr_idle_cycles       7352308645                       # number of cycles bus was idle
system.cpu1.toL3Bus.addr_idle_fraction       0.999978                       # fraction of time addr bus was idle
system.cpu1.toL3Bus.addr_queued              8.229956                       # average queueing delay seen by bus request
system.cpu1.toL3Bus.addr_queued_cycles        1326603                       # total number of queued cycles for all requests
system.cpu1.toL3Bus.addr_requests              161192                       # number of transmissions on bus
system.cpu1.toL3Bus.bus_blocked                    37                       # number of times bus was blocked
system.cpu1.toL3Bus.bus_blocked_cycles          16884                       # number of cycles bus was blocked
system.cpu1.toL3Bus.bus_blocked_fraction     0.000002                       # fraction of time bus was blocked
system.cpu1.toL3Bus.data_idle_cycles       7352351403                       # number of cycles bus was idle
system.cpu1.toL3Bus.data_idle_fraction       0.999984                       # fraction of time data bus was idle
system.cpu1.toL3Bus.data_queued              1.050009                       # average queueing delay seen by bus request
system.cpu1.toL3Bus.data_queued_cycles          91566                       # total number of queued cycles for all requests
system.cpu1.toL3Bus.data_requests               87205                       # number of transmissions on bus
system.cpu1.toL3Bus.null_grants                     0                       # number of null grants (wasted cycles)
system.cpu1inst_class_dist.start_dist
                   All ops ready            0      0.00%            # Operand status at dispatch
                One op not ready            0      0.00%            # Operand status at dispatch
           None rdy, mult chains            0      0.00%            # Operand status at dispatch
           None rdy, one chained            0      0.00%            # Operand status at dispatch
        None rdy, all self-timed            0      0.00%            # Operand status at dispatch
system.cpu1inst_class_dist.end_dist
system.kern.fnCalls                                 0                       # all fn calls being tracked
system.ram.accesses                            538045                       # total number of accesses
system.ram.bytes_requested                          0                       # total number of bytes requested
system.ram.bytes_sent                               0                       # total number of bytes sent
system.ram.compressed_responses                     0                       # total number of accesses that are compressed
system.toMemBus.addr_idle_cycles           7351855085                       # number of cycles bus was idle
system.toMemBus.addr_idle_fraction           0.999916                       # fraction of time addr bus was idle
system.toMemBus.addr_queued                 32.488360                       # average queueing delay seen by bus request
system.toMemBus.addr_queued_cycles           19917379                       # total number of queued cycles for all requests
system.toMemBus.addr_requests                  613062                       # number of transmissions on bus
system.toMemBus.bus_blocked                         0                       # number of times bus was blocked
system.toMemBus.bus_blocked_cycles                  0                       # number of cycles bus was blocked
system.toMemBus.bus_blocked_fraction                0                       # fraction of time bus was blocked
system.toMemBus.data_idle_cycles           7350294622                       # number of cycles bus was idle
system.toMemBus.data_idle_fraction           0.999704                       # fraction of time data bus was idle
system.toMemBus.data_queued                  4.327761                       # average queueing delay seen by bus request
system.toMemBus.data_queued_cycles            1572042                       # total number of queued cycles for all requests
system.toMemBus.data_requests                  363246                       # number of transmissions on bus
system.toMemBus.null_grants                         0                       # number of null grants (wasted cycles)
system.tsunami.ethernet.coalescedRxDesc  <err: div-0>                       # average number of RxDesc's coalesced into each post
system.tsunami.ethernet.coalescedRxIdle  <err: div-0>                       # average number of RxIdle's coalesced into each post
system.tsunami.ethernet.coalescedRxOk    <err: div-0>                       # average number of RxOk's coalesced into each post
system.tsunami.ethernet.coalescedRxOrn   <err: div-0>                       # average number of RxOrn's coalesced into each post
system.tsunami.ethernet.coalescedSwi     <err: div-0>                       # average number of Swi's coalesced into each post
system.tsunami.ethernet.coalescedTotal   <err: div-0>                       # average number of interrupts coalesced into each post
system.tsunami.ethernet.coalescedTxDesc  <err: div-0>                       # average number of TxDesc's coalesced into each post
system.tsunami.ethernet.coalescedTxIdle  <err: div-0>                       # average number of TxIdle's coalesced into each post
system.tsunami.ethernet.coalescedTxOk    <err: div-0>                       # average number of TxOk's coalesced into each post
system.tsunami.ethernet.descDMAReads                0                       # Number of descriptors the device read w/ DMA
system.tsunami.ethernet.descDMAWrites               0                       # Number of descriptors the device wrote w/ DMA
system.tsunami.ethernet.descDmaReadBytes            0                       # number of descriptor bytes read w/ DMA
system.tsunami.ethernet.descDmaWriteBytes            0                       # number of descriptor bytes write w/ DMA
system.tsunami.ethernet.dma.avg_large_transaction_latency <err: div-0>                       # The average latency of large transactions.
system.tsunami.ethernet.dma.avg_small_transaction_latency <err: div-0>                       # The average latency of small transactions.
system.tsunami.ethernet.dma.avg_transaction_latency <err: div-0>                       # The average latency of all transactions.
system.tsunami.ethernet.dma.bytes_transfered            0                       # Total bytes sent
system.tsunami.ethernet.dma.large_transaction_latency            0                       # The total cycle latency of all large transactions.
system.tsunami.ethernet.dma.large_transactions            0                       # Total number of transactions greater than the block size.
system.tsunami.ethernet.dma.packets_sent            0                       # number of packets sent(blocks)
system.tsunami.ethernet.dma.requests                0                       # Total number of dma requests made
system.tsunami.ethernet.dma.round_trip_latency <err: div-0>                       # Average Round-Trip latency
system.tsunami.ethernet.dma.small_transaction_latency            0                       # The total cycle latency of all small transactions.
system.tsunami.ethernet.dma.small_transactions            0                       # Total number of transactions less than the block size.
system.tsunami.ethernet.dma.total_cycle_latency            0                       # sum of all latencies
system.tsunami.ethernet.dma.transaction_latency            0                       # The total cycle latency of all transactions.
system.tsunami.ethernet.droppedPackets              0                       # number of packets dropped
system.tsunami.ethernet.postedInterrupts            0                       # number of posts to CPU
system.tsunami.ethernet.postedRxDesc                0                       # number of RxDesc interrupts posted to CPU
system.tsunami.ethernet.postedRxIdle                0                       # number of rxIdle interrupts posted to CPU
system.tsunami.ethernet.postedRxOk                  0                       # number of RxOk interrupts posted to CPU
system.tsunami.ethernet.postedRxOrn                 0                       # number of RxOrn posted to CPU
system.tsunami.ethernet.postedSwi                   0                       # number of software interrupts posted to CPU
system.tsunami.ethernet.postedTxDesc                0                       # number of TxDesc interrupts posted to CPU
system.tsunami.ethernet.postedTxIdle                0                       # number of TxIdle interrupts posted to CPU
system.tsunami.ethernet.postedTxOk                  0                       # number of TxOk interrupts posted to CPU
system.tsunami.ethernet.totalRxDesc                 0                       # number of total RxDesc written to ISR
system.tsunami.ethernet.totalRxIdle                 0                       # number of total RxIdle written to ISR
system.tsunami.ethernet.totalRxOk                   0                       # number of total RxOk written to ISR
system.tsunami.ethernet.totalRxOrn                  0                       # number of total RxOrn written to ISR
system.tsunami.ethernet.totalSwi                    0                       # number of total Swi written to ISR
system.tsunami.ethernet.totalTxDesc                 0                       # number of total TxDesc written to ISR
system.tsunami.ethernet.totalTxIdle                 0                       # number of total TxIdle written to ISR
system.tsunami.ethernet.totalTxOk                   0                       # number of total TxOk written to ISR
system.tsunami.ide.dma.avg_large_transaction_latency   528.263298                       # The average latency of large transactions.
system.tsunami.ide.dma.avg_small_transaction_latency    44.013158                       # The average latency of small transactions.
system.tsunami.ide.dma.avg_transaction_latency   388.857955                       # The average latency of all transactions.
system.tsunami.ide.dma.bytes_transfered       2531336                       # Total bytes sent
system.tsunami.ide.dma.large_transaction_latency       198627                       # The total cycle latency of all large transactions.
system.tsunami.ide.dma.large_transactions          376                       # Total number of transactions greater than the block size.
system.tsunami.ide.dma.packets_sent             39560                       # number of packets sent(blocks)
system.tsunami.ide.dma.requests                   528                       # Total number of dma requests made
system.tsunami.ide.dma.round_trip_latency   286.045905                       # Average Round-Trip latency
system.tsunami.ide.dma.small_transaction_latency         6690                       # The total cycle latency of all small transactions.
system.tsunami.ide.dma.small_transactions          152                       # Total number of transactions less than the block size.
system.tsunami.ide.dma.total_cycle_latency     11315976                       # sum of all latencies
system.tsunami.ide.dma.transaction_latency       205317                       # The total cycle latency of all transactions.

---------- End Simulation Statistics   ----------
