
---------- Begin Simulation Statistics ----------
cpu.COM:IPB                                  8.145957                       # Committed instructions per branch
cpu.COM:IPC                                  2.116709                       # Committed instructions per cycle
cpu.COM:branches                                61381                       # Number of branches committed
cpu.COM:bw_lim_avg                       <err: div-0>                       # Avg number not committed in cycles BW limited
cpu.COM:bw_lim_events                               0                       # number cycles where commit BW limit reached
cpu.COM:bw_lim_rate                            0.0000                       # Average number not committed due to BW (over all cycles)
cpu.COM:bw_lim_stdev_0_mean              <err: div-0>                       # standard deviation of bw_lim_avg value
cpu.COM:bw_lim_stdev_0_stdev             <err: div-0>                       # standard deviation of bw_lim_avg value
**Ignore: cpu.COM:bw_lim_stdev_0_TOT           0.0000                       # standard deviation of bw_lim_avg value
cpu.COM:bw_limited                                  0                       # number of insts not committed due to BW limits
cpu.COM:committed_per_cycle.start_dist                         # Number of insts commited each cycle
cpu.COM:committed_per_cycle.samples            104604                      
cpu.COM:committed_per_cycle.min_value               0                      
                               0          327     31.26%           
                               1        27882   2665.48%           
                               2        10839   1036.19%           
                               3         5909    564.89%           
                               4         6245    597.01%           
                               5         2452    234.41%           
                               6         3810    364.23%           
                               7         2831    270.64%           
                               8        44309   4235.88%           
cpu.COM:committed_per_cycle.max_value               8                      
cpu.COM:committed_per_cycle.end_dist

cpu.COM:count                                  500007                       # Number of instructions committed
cpu.COM:loads                                  131856                       # Number of loads committed
cpu.COM:membars                                     0                       # Number of memory barriers committed
cpu.COM:refs                                   190424                       # Number of memory references committed
cpu.COM:stores                                  58568                       # Number of stores committed
cpu.COM:swp_count                                1669                       # Number of s/w prefetches committed
cpu.DDQ:count                                21864839                       # cum count of instructions
cpu.DDQ:rate                                       93                       # average number of instructions
cpu.DIS:chain_creation.start_dist
     Inst has no outstanding IDEPS            0      0.00%            # Reason that chain head was created
      IDEP chain reached max depth            0      0.00%            # Reason that chain head was created
                    Inst is a load            0      0.00%            # Reason that chain head was created
  Chain has multiple chained IDEPS            0      0.00%            # Reason that chain head was created
cpu.DIS:chain_creation.end_dist
cpu.DIS:chain_head_frac                             0                       # fraction of insts that are chain heads
cpu.DIS:chain_heads                                 0                       # number insts that are chain heads
cpu.DIS:chains_insuf                                0                       # number of times thread had insuf chains
cpu.DIS:chains_insuf_rate                           0                       # rate that thread had insuf chains
cpu.DIS:count                                  634630                       # cumulative count of dispatched insts
cpu.DIS:insufficient_chains                         0                       # Number of instances where dispatch stopped
cpu.DIS:mod_n_stall_avg_free                 no value                       # avg free slots per cycle
cpu.DIS:mod_n_stall_frac                            0                       # avg stalls per cycle
cpu.DIS:mod_n_stall_free                            0                       # free slots when dispatch stalled due to mod-n
cpu.DIS:mod_n_stalls                                0                       # cycles where dispatch stalled due to mod-n
cpu.DIS:one_rdy_insts                               0                       # number of 2-op insts w/ one rdy op
cpu.DIS:one_rdy_ratio                        no value                       # fraction of 2-op insts w/ one ready op
cpu.DIS:op_count                               875841                       # number of operations dispatched
cpu.DIS:op_rate                              3.707750                       # dispatched operations per cycle
cpu.DIS:rate                                 2.686617                       # dispatched_insts per cycle
cpu.DIS:second_choice_clust                         0                       # Number of instructions dispatched to second-choice cluster
cpu.DIS:second_choice_stall                         0                       # Number of instructions stalled when first choice not available
cpu.DIS:serialize_stall_cycles                      0                       # count of cycles dispatch stalled for serializing inst
cpu.DIS:serializing_insts                           0                       # count of serializing insts dispatched
cpu.DIS:two_input_insts                             0                       # Number of two input instructions queued
cpu.DIS:two_input_ratio                             0                       # fraction of all insts having 2 inputs
cpu.FETCH:branch_count                          87689                       # Number of branches fetched
cpu.FETCH:branch_rate                        0.371219                       # Number of branch fetches per cycle
cpu.FETCH:chance_pct                                1                       # Percentage of all fetch chances
cpu.FETCH:chances                              141201                       # Number of fetch opportunities
cpu.FETCH:choice                               141201                       # Number of times we fetched from our first choice
cpu.FETCH:count                                844599                       # Number of instructions fetched
cpu.FETCH:decisions                            141201                       # number of times the fetch stage chose between threads
cpu.FETCH:idle_cycles                           95018                       # number of cycles where fetch stage was idle
cpu.FETCH:idle_icache_blocked_cycles                0                       # number of cycles where fetch was idle due to icache blocked
cpu.FETCH:idle_rate                             40.22                       # percent of cycles fetch stage was idle
cpu.FETCH:prio_changes                              0                       # Number of times priorities were changed
cpu.FETCH:rate                               3.575491                       # Number of inst fetches per cycle
cpu.FETCH:rate_dist.start_dist                                 # Number of instructions fetched each cycle (Total)
cpu.FETCH:rate_dist.samples                    141201                      
cpu.FETCH:rate_dist.min_value                       0                      
                               0           21      1.49%           
                               1         6318    447.45%           
                               2         6937    491.29%           
                               3        11266    797.87%           
                               4         8194    580.31%           
                               5        13157    931.79%           
                               6        33557   2376.54%           
                               7         3302    233.85%           
                               8        58449   4139.42%           
cpu.FETCH:rate_dist.max_value                       8                      
cpu.FETCH:rate_dist.end_dist

cpu.FETCH:rate_dist_0.start_dist                               # Number of instructions fetched each cycle (Thread 0)
cpu.FETCH:rate_dist_0.samples                  141201                      
cpu.FETCH:rate_dist_0.min_value                     0                      
                               0           21      1.49%           
                               1         6318    447.45%           
                               2         6937    491.29%           
                               3        11266    797.87%           
                               4         8194    580.31%           
                               5        13157    931.79%           
                               6        33557   2376.54%           
                               7         3302    233.85%           
                               8        58449   4139.42%           
cpu.FETCH:rate_dist_0.max_value                     8                      
cpu.FETCH:rate_dist_0.end_dist

cpu.IFQ:count                                 5166561                       # cumulative IFQ occupancy
cpu.IFQ:full_count                             137254                       # cumulative IFQ full count
cpu.IFQ:full_rate                           58.104556                       # fraction of time (cycle's) IFQ was full
cpu.IFQ:latency                              8.141060                       # avg IFQ occupant latency (cycle's)
cpu.IFQ:occupancy                           21.871911                       # avg IFQ occupancy (inst's)
cpu.IFQ:qfull_iq_occ                          1860646                       # Number of insts in IQ when fetch-queue full
cpu.IFQ:qfull_iq_occ_dist_0.start_dist                         # Number of insts in IQ when fetch-queue full
cpu.IFQ:qfull_iq_occ_dist_0.samples             44910                      
cpu.IFQ:qfull_iq_occ_dist_0.min_value               0                      
                               0         9233   2055.89%           
                              10         1211    269.65%           
                              20         1114    248.05%           
                              30         2172    483.63%           
                              40        10177   2266.09%           
                              50        14251   3173.24%           
                              60         6752   1503.45%           
cpu.IFQ:qfull_iq_occ_dist_0.max_value              64                      
cpu.IFQ:qfull_iq_occ_dist_0.end_dist

cpu.IFQ:qfull_rob_occ                         6023519                       # Number of insts in ROB when fetch-queue full
cpu.IFQ:qfull_rob_occ_dist_0.start_dist                        # Number of insts in ROB when fetch-queue full
cpu.IFQ:qfull_rob_occ_dist_0.samples            44910                      
cpu.IFQ:qfull_rob_occ_dist_0.min_value             57                      
                               0            0      0.00%           
                              10            0      0.00%           
                              20            0      0.00%           
                              30            0      0.00%           
                              40            0      0.00%           
                              50           74     16.48%           
                              60          833    185.48%           
                              70         4705   1047.65%           
                              80        10454   2327.77%           
                              90         5220   1162.32%           
                             100         2104    468.49%           
                             110         1103    245.60%           
                             120         1576    350.92%           
                             130           97     21.60%           
                             140           30      6.68%           
                             150           21      4.68%           
                             160           34      7.57%           
                             170           35      7.79%           
                             180           67     14.92%           
                             190        18557   4132.04%           
                             200            0      0.00%           
cpu.IFQ:qfull_rob_occ_dist_0.max_value            196                      
cpu.IFQ:qfull_rob_occ_dist_0.end_dist

cpu.IQ:cap_events                                   0                       # number of cycles where IQ cap was active
cpu.IQ:cap_inst                                     0                       # number of instructions held up by IQ cap
cpu.IQ:residence:(null).start_dist                             # cycles from dispatch to issue
cpu.IQ:residence:(null).samples                     0                      
cpu.IQ:residence:(null).min_value                   0                      
                               0            0                      
                               2            0                      
                               4            0                      
                               6            0                      
                               8            0                      
                              10            0                      
                              12            0                      
                              14            0                      
                              16            0                      
                              18            0                      
                              20            0                      
                              22            0                      
                              24            0                      
                              26            0                      
                              28            0                      
                              30            0                      
                              32            0                      
                              34            0                      
                              36            0                      
                              38            0                      
                              40            0                      
                              42            0                      
                              44            0                      
                              46            0                      
                              48            0                      
                              50            0                      
                              52            0                      
                              54            0                      
                              56            0                      
                              58            0                      
                              60            0                      
                              62            0                      
                              64            0                      
                              66            0                      
                              68            0                      
                              70            0                      
                              72            0                      
                              74            0                      
                              76            0                      
                              78            0                      
                              80            0                      
                              82            0                      
                              84            0                      
                              86            0                      
                              88            0                      
                              90            0                      
                              92            0                      
                              94            0                      
                              96            0                      
                              98            0                      
cpu.IQ:residence:(null).max_value                   0                      
cpu.IQ:residence:(null).end_dist

cpu.IQ:residence:IntAlu.start_dist                             # cycles from dispatch to issue
cpu.IQ:residence:IntAlu.samples                343954                      
cpu.IQ:residence:IntAlu.min_value                   1                      
                               0        38039   1105.93%   1105.93%
                               2        22458    652.94%   1758.87%
                               4        17272    502.16%   2261.03%
                               6        28283    822.29%   3083.32%
                               8        19915    579.00%   3662.32%
                              10        19342    562.34%   4224.66%
                              12        31084    903.73%   5128.39%
                              14        21166    615.37%   5743.76%
                              16        23136    672.65%   6416.41%
                              18        27610    802.72%   7219.13%
                              20        17620    512.28%   7731.41%
                              22         5441    158.19%   7889.60%
                              24         7592    220.73%   8110.33%
                              26         3480    101.18%   8211.51%
                              28         4153    120.74%   8332.25%
                              30         2268     65.94%   8398.19%
                              32         7231    210.23%   8608.42%
                              34         9437    274.37%   8882.79%
                              36         5186    150.78%   9033.56%
                              38         3933    114.35%   9147.91%
                              40         6872    199.79%   9347.70%
                              42         5074    147.52%   9495.22%
                              44         3297     95.86%   9591.08%
                              46         5600    162.81%   9753.89%
                              48         2432     70.71%   9824.60%
                              50          432     12.56%   9837.16%
                              52         1181     34.34%   9871.49%
                              54           11      0.32%   9871.81%
                              56           11      0.32%   9872.13%
                              58            5      0.15%   9872.28%
                              60            4      0.12%   9872.40%
                              62           13      0.38%   9872.77%
                              64           63      1.83%   9874.61%
                              66            3      0.09%   9874.69%
                              68            4      0.12%   9874.81%
                              70            0      0.00%   9874.81%
                              72            0      0.00%   9874.81%
                              74            0      0.00%   9874.81%
                              76            0      0.00%   9874.81%
                              78            0      0.00%   9874.81%
                              80            3      0.09%   9874.90%
                              82            7      0.20%   9875.10%
                              84           15      0.44%   9875.54%
                              86           19      0.55%   9876.09%
                              88           16      0.47%   9876.55%
                              90           31      0.90%   9877.45%
                              92           44      1.28%   9878.73%
                              94           43      1.25%   9879.98%
                              96           64      1.86%   9881.84%
                              98           42      1.22%   9883.07%
cpu.IQ:residence:IntAlu.overflows                4022                      
cpu.IQ:residence:IntAlu.max_value                 312                      
cpu.IQ:residence:IntAlu.end_dist

cpu.IQ:residence:IntMult.start_dist                            # cycles from dispatch to issue
cpu.IQ:residence:IntMult.samples                   10                      
cpu.IQ:residence:IntMult.min_value                  2                      
                               0            0      0.00%      0.00%
                               2            1   1000.00%   1000.00%
                               4            0      0.00%   1000.00%
                               6            3   3000.00%   4000.00%
                               8            0      0.00%   4000.00%
                              10            0      0.00%   4000.00%
                              12            1   1000.00%   5000.00%
                              14            1   1000.00%   6000.00%
                              16            0      0.00%   6000.00%
                              18            1   1000.00%   7000.00%
                              20            0      0.00%   7000.00%
                              22            0      0.00%   7000.00%
                              24            0      0.00%   7000.00%
                              26            0      0.00%   7000.00%
                              28            0      0.00%   7000.00%
                              30            0      0.00%   7000.00%
                              32            0      0.00%   7000.00%
                              34            0      0.00%   7000.00%
                              36            0      0.00%   7000.00%
                              38            0      0.00%   7000.00%
                              40            0      0.00%   7000.00%
                              42            0      0.00%   7000.00%
                              44            0      0.00%   7000.00%
                              46            0      0.00%   7000.00%
                              48            0      0.00%   7000.00%
                              50            0      0.00%   7000.00%
                              52            0      0.00%   7000.00%
                              54            0      0.00%   7000.00%
                              56            0      0.00%   7000.00%
                              58            0      0.00%   7000.00%
                              60            0      0.00%   7000.00%
                              62            0      0.00%   7000.00%
                              64            0      0.00%   7000.00%
                              66            0      0.00%   7000.00%
                              68            0      0.00%   7000.00%
                              70            0      0.00%   7000.00%
                              72            0      0.00%   7000.00%
                              74            0      0.00%   7000.00%
                              76            0      0.00%   7000.00%
                              78            0      0.00%   7000.00%
                              80            0      0.00%   7000.00%
                              82            0      0.00%   7000.00%
                              84            0      0.00%   7000.00%
                              86            0      0.00%   7000.00%
                              88            0      0.00%   7000.00%
                              90            0      0.00%   7000.00%
                              92            0      0.00%   7000.00%
                              94            0      0.00%   7000.00%
                              96            0      0.00%   7000.00%
                              98            0      0.00%   7000.00%
cpu.IQ:residence:IntMult.overflows                  3                      
cpu.IQ:residence:IntMult.max_value                141                      
cpu.IQ:residence:IntMult.end_dist

cpu.IQ:residence:IntDiv.start_dist                             # cycles from dispatch to issue
cpu.IQ:residence:IntDiv.samples                     0                      
cpu.IQ:residence:IntDiv.min_value                   0                      
                               0            0                      
                               2            0                      
                               4            0                      
                               6            0                      
                               8            0                      
                              10            0                      
                              12            0                      
                              14            0                      
                              16            0                      
                              18            0                      
                              20            0                      
                              22            0                      
                              24            0                      
                              26            0                      
                              28            0                      
                              30            0                      
                              32            0                      
                              34            0                      
                              36            0                      
                              38            0                      
                              40            0                      
                              42            0                      
                              44            0                      
                              46            0                      
                              48            0                      
                              50            0                      
                              52            0                      
                              54            0                      
                              56            0                      
                              58            0                      
                              60            0                      
                              62            0                      
                              64            0                      
                              66            0                      
                              68            0                      
                              70            0                      
                              72            0                      
                              74            0                      
                              76            0                      
                              78            0                      
                              80            0                      
                              82            0                      
                              84            0                      
                              86            0                      
                              88            0                      
                              90            0                      
                              92            0                      
                              94            0                      
                              96            0                      
                              98            0                      
cpu.IQ:residence:IntDiv.max_value                   0                      
cpu.IQ:residence:IntDiv.end_dist

cpu.IQ:residence:FloatAdd.start_dist                           # cycles from dispatch to issue
cpu.IQ:residence:FloatAdd.samples                  32                      
cpu.IQ:residence:FloatAdd.min_value                 6                      
                               0            0      0.00%      0.00%
                               2            0      0.00%      0.00%
                               4            0      0.00%      0.00%
                               6            7   2187.50%   2187.50%
                               8            4   1250.00%   3437.50%
                              10            8   2500.00%   5937.50%
                              12            8   2500.00%   8437.50%
                              14            1    312.50%   8750.00%
                              16            1    312.50%   9062.50%
                              18            0      0.00%   9062.50%
                              20            0      0.00%   9062.50%
                              22            0      0.00%   9062.50%
                              24            0      0.00%   9062.50%
                              26            0      0.00%   9062.50%
                              28            0      0.00%   9062.50%
                              30            0      0.00%   9062.50%
                              32            0      0.00%   9062.50%
                              34            0      0.00%   9062.50%
                              36            0      0.00%   9062.50%
                              38            0      0.00%   9062.50%
                              40            0      0.00%   9062.50%
                              42            0      0.00%   9062.50%
                              44            0      0.00%   9062.50%
                              46            0      0.00%   9062.50%
                              48            0      0.00%   9062.50%
                              50            0      0.00%   9062.50%
                              52            0      0.00%   9062.50%
                              54            0      0.00%   9062.50%
                              56            0      0.00%   9062.50%
                              58            0      0.00%   9062.50%
                              60            0      0.00%   9062.50%
                              62            0      0.00%   9062.50%
                              64            0      0.00%   9062.50%
                              66            0      0.00%   9062.50%
                              68            0      0.00%   9062.50%
                              70            0      0.00%   9062.50%
                              72            0      0.00%   9062.50%
                              74            0      0.00%   9062.50%
                              76            0      0.00%   9062.50%
                              78            0      0.00%   9062.50%
                              80            0      0.00%   9062.50%
                              82            0      0.00%   9062.50%
                              84            0      0.00%   9062.50%
                              86            0      0.00%   9062.50%
                              88            0      0.00%   9062.50%
                              90            0      0.00%   9062.50%
                              92            0      0.00%   9062.50%
                              94            1    312.50%   9375.00%
                              96            0      0.00%   9375.00%
                              98            0      0.00%   9375.00%
cpu.IQ:residence:FloatAdd.overflows                 2                      
cpu.IQ:residence:FloatAdd.max_value               146                      
cpu.IQ:residence:FloatAdd.end_dist

cpu.IQ:residence:FloatCmp.start_dist                           # cycles from dispatch to issue
cpu.IQ:residence:FloatCmp.samples                   3                      
cpu.IQ:residence:FloatCmp.min_value                10                      
                               0            0      0.00%      0.00%
                               2            0      0.00%      0.00%
                               4            0      0.00%      0.00%
                               6            0      0.00%      0.00%
                               8            0      0.00%      0.00%
                              10            1   3333.33%   3333.33%
                              12            0      0.00%   3333.33%
                              14            1   3333.33%   6666.67%
                              16            0      0.00%   6666.67%
                              18            0      0.00%   6666.67%
                              20            0      0.00%   6666.67%
                              22            0      0.00%   6666.67%
                              24            0      0.00%   6666.67%
                              26            0      0.00%   6666.67%
                              28            0      0.00%   6666.67%
                              30            0      0.00%   6666.67%
                              32            0      0.00%   6666.67%
                              34            0      0.00%   6666.67%
                              36            0      0.00%   6666.67%
                              38            0      0.00%   6666.67%
                              40            0      0.00%   6666.67%
                              42            0      0.00%   6666.67%
                              44            0      0.00%   6666.67%
                              46            0      0.00%   6666.67%
                              48            0      0.00%   6666.67%
                              50            0      0.00%   6666.67%
                              52            0      0.00%   6666.67%
                              54            0      0.00%   6666.67%
                              56            0      0.00%   6666.67%
                              58            0      0.00%   6666.67%
                              60            0      0.00%   6666.67%
                              62            0      0.00%   6666.67%
                              64            0      0.00%   6666.67%
                              66            0      0.00%   6666.67%
                              68            0      0.00%   6666.67%
                              70            0      0.00%   6666.67%
                              72            0      0.00%   6666.67%
                              74            0      0.00%   6666.67%
                              76            0      0.00%   6666.67%
                              78            0      0.00%   6666.67%
                              80            0      0.00%   6666.67%
                              82            0      0.00%   6666.67%
                              84            0      0.00%   6666.67%
                              86            0      0.00%   6666.67%
                              88            0      0.00%   6666.67%
                              90            0      0.00%   6666.67%
                              92            0      0.00%   6666.67%
                              94            0      0.00%   6666.67%
                              96            0      0.00%   6666.67%
                              98            0      0.00%   6666.67%
cpu.IQ:residence:FloatCmp.overflows                 1                      
cpu.IQ:residence:FloatCmp.max_value               144                      
cpu.IQ:residence:FloatCmp.end_dist

cpu.IQ:residence:FloatCvt.start_dist                           # cycles from dispatch to issue
cpu.IQ:residence:FloatCvt.samples                   0                      
cpu.IQ:residence:FloatCvt.min_value                 0                      
                               0            0                      
                               2            0                      
                               4            0                      
                               6            0                      
                               8            0                      
                              10            0                      
                              12            0                      
                              14            0                      
                              16            0                      
                              18            0                      
                              20            0                      
                              22            0                      
                              24            0                      
                              26            0                      
                              28            0                      
                              30            0                      
                              32            0                      
                              34            0                      
                              36            0                      
                              38            0                      
                              40            0                      
                              42            0                      
                              44            0                      
                              46            0                      
                              48            0                      
                              50            0                      
                              52            0                      
                              54            0                      
                              56            0                      
                              58            0                      
                              60            0                      
                              62            0                      
                              64            0                      
                              66            0                      
                              68            0                      
                              70            0                      
                              72            0                      
                              74            0                      
                              76            0                      
                              78            0                      
                              80            0                      
                              82            0                      
                              84            0                      
                              86            0                      
                              88            0                      
                              90            0                      
                              92            0                      
                              94            0                      
                              96            0                      
                              98            0                      
cpu.IQ:residence:FloatCvt.max_value                 0                      
cpu.IQ:residence:FloatCvt.end_dist

cpu.IQ:residence:FloatMult.start_dist                          # cycles from dispatch to issue
cpu.IQ:residence:FloatMult.samples                  8                      
cpu.IQ:residence:FloatMult.min_value                6                      
                               0            0      0.00%      0.00%
                               2            0      0.00%      0.00%
                               4            0      0.00%      0.00%
                               6            2   2500.00%   2500.00%
                               8            0      0.00%   2500.00%
                              10            1   1250.00%   3750.00%
                              12            4   5000.00%   8750.00%
                              14            0      0.00%   8750.00%
                              16            0      0.00%   8750.00%
                              18            0      0.00%   8750.00%
                              20            0      0.00%   8750.00%
                              22            0      0.00%   8750.00%
                              24            0      0.00%   8750.00%
                              26            0      0.00%   8750.00%
                              28            0      0.00%   8750.00%
                              30            0      0.00%   8750.00%
                              32            0      0.00%   8750.00%
                              34            0      0.00%   8750.00%
                              36            0      0.00%   8750.00%
                              38            0      0.00%   8750.00%
                              40            0      0.00%   8750.00%
                              42            0      0.00%   8750.00%
                              44            0      0.00%   8750.00%
                              46            0      0.00%   8750.00%
                              48            0      0.00%   8750.00%
                              50            0      0.00%   8750.00%
                              52            0      0.00%   8750.00%
                              54            0      0.00%   8750.00%
                              56            0      0.00%   8750.00%
                              58            0      0.00%   8750.00%
                              60            0      0.00%   8750.00%
                              62            0      0.00%   8750.00%
                              64            0      0.00%   8750.00%
                              66            0      0.00%   8750.00%
                              68            0      0.00%   8750.00%
                              70            0      0.00%   8750.00%
                              72            0      0.00%   8750.00%
                              74            0      0.00%   8750.00%
                              76            0      0.00%   8750.00%
                              78            0      0.00%   8750.00%
                              80            0      0.00%   8750.00%
                              82            0      0.00%   8750.00%
                              84            0      0.00%   8750.00%
                              86            0      0.00%   8750.00%
                              88            0      0.00%   8750.00%
                              90            0      0.00%   8750.00%
                              92            0      0.00%   8750.00%
                              94            0      0.00%   8750.00%
                              96            0      0.00%   8750.00%
                              98            0      0.00%   8750.00%
cpu.IQ:residence:FloatMult.overflows                1                      
cpu.IQ:residence:FloatMult.max_value              141                      
cpu.IQ:residence:FloatMult.end_dist

cpu.IQ:residence:FloatDiv.start_dist                           # cycles from dispatch to issue
cpu.IQ:residence:FloatDiv.samples                   0                      
cpu.IQ:residence:FloatDiv.min_value                 0                      
                               0            0                      
                               2            0                      
                               4            0                      
                               6            0                      
                               8            0                      
                              10            0                      
                              12            0                      
                              14            0                      
                              16            0                      
                              18            0                      
                              20            0                      
                              22            0                      
                              24            0                      
                              26            0                      
                              28            0                      
                              30            0                      
                              32            0                      
                              34            0                      
                              36            0                      
                              38            0                      
                              40            0                      
                              42            0                      
                              44            0                      
                              46            0                      
                              48            0                      
                              50            0                      
                              52            0                      
                              54            0                      
                              56            0                      
                              58            0                      
                              60            0                      
                              62            0                      
                              64            0                      
                              66            0                      
                              68            0                      
                              70            0                      
                              72            0                      
                              74            0                      
                              76            0                      
                              78            0                      
                              80            0                      
                              82            0                      
                              84            0                      
                              86            0                      
                              88            0                      
                              90            0                      
                              92            0                      
                              94            0                      
                              96            0                      
                              98            0                      
cpu.IQ:residence:FloatDiv.max_value                 0                      
cpu.IQ:residence:FloatDiv.end_dist

cpu.IQ:residence:FloatSqrt.start_dist                          # cycles from dispatch to issue
cpu.IQ:residence:FloatSqrt.samples                  0                      
cpu.IQ:residence:FloatSqrt.min_value                0                      
                               0            0                      
                               2            0                      
                               4            0                      
                               6            0                      
                               8            0                      
                              10            0                      
                              12            0                      
                              14            0                      
                              16            0                      
                              18            0                      
                              20            0                      
                              22            0                      
                              24            0                      
                              26            0                      
                              28            0                      
                              30            0                      
                              32            0                      
                              34            0                      
                              36            0                      
                              38            0                      
                              40            0                      
                              42            0                      
                              44            0                      
                              46            0                      
                              48            0                      
                              50            0                      
                              52            0                      
                              54            0                      
                              56            0                      
                              58            0                      
                              60            0                      
                              62            0                      
                              64            0                      
                              66            0                      
                              68            0                      
                              70            0                      
                              72            0                      
                              74            0                      
                              76            0                      
                              78            0                      
                              80            0                      
                              82            0                      
                              84            0                      
                              86            0                      
                              88            0                      
                              90            0                      
                              92            0                      
                              94            0                      
                              96            0                      
                              98            0                      
cpu.IQ:residence:FloatSqrt.max_value                0                      
cpu.IQ:residence:FloatSqrt.end_dist

cpu.IQ:residence:MemRead.start_dist                            # cycles from dispatch to issue
cpu.IQ:residence:MemRead.samples               300338                      
cpu.IQ:residence:MemRead.min_value                  1                      
                               0        28629    953.23%    953.23%
                               2        24379    811.72%   1764.94%
                               4        21591    718.89%   2483.83%
                               6        37624   1252.72%   3736.56%
                               8        32087   1068.36%   4804.92%
                              10        26032    866.76%   5671.68%
                              12        26385    878.51%   6550.19%
                              14        17086    568.89%   7119.08%
                              16        14397    479.36%   7598.44%
                              18         8006    266.57%   7865.01%
                              20         9139    304.29%   8169.30%
                              22         2849     94.86%   8264.16%
                              24         1826     60.80%   8324.95%
                              26         3283    109.31%   8434.26%
                              28         9557    318.21%   8752.47%
                              30         3619    120.50%   8872.97%
                              32         3480    115.87%   8988.84%
                              34         7958    264.97%   9253.81%
                              36         5610    186.79%   9440.60%
                              38         2210     73.58%   9514.18%
                              40         2311     76.95%   9591.13%
                              42         3687    122.76%   9713.89%
                              44         1519     50.58%   9764.47%
                              46          840     27.97%   9792.43%
                              48         4003    133.28%   9925.72%
                              50          744     24.77%   9950.49%
                              52           82      2.73%   9953.22%
                              54           74      2.46%   9955.68%
                              56            3      0.10%   9955.78%
                              58            6      0.20%   9955.98%
                              60           23      0.77%   9956.75%
                              62            5      0.17%   9956.92%
                              64            2      0.07%   9956.98%
                              66           19      0.63%   9957.61%
                              68            0      0.00%   9957.61%
                              70            0      0.00%   9957.61%
                              72            0      0.00%   9957.61%
                              74            0      0.00%   9957.61%
                              76            0      0.00%   9957.61%
                              78            0      0.00%   9957.61%
                              80            0      0.00%   9957.61%
                              82            0      0.00%   9957.61%
                              84            6      0.20%   9957.81%
                              86           18      0.60%   9958.41%
                              88           29      0.97%   9959.38%
                              90           26      0.87%   9960.24%
                              92           26      0.87%   9961.11%
                              94           13      0.43%   9961.54%
                              96           15      0.50%   9962.04%
                              98           13      0.43%   9962.48%
cpu.IQ:residence:MemRead.overflows               1127                      
cpu.IQ:residence:MemRead.max_value                296                      
cpu.IQ:residence:MemRead.end_dist

cpu.IQ:residence:MemWrite.start_dist                           # cycles from dispatch to issue
cpu.IQ:residence:MemWrite.samples              135335                      
cpu.IQ:residence:MemWrite.min_value                 1                      
                               0        10024    740.68%    740.68%
                               2        29368   2170.02%   2910.70%
                               4        12779    944.25%   3854.95%
                               6        16177   1195.33%   5050.28%
                               8        21104   1559.39%   6609.67%
                              10         5237    386.97%   6996.64%
                              12        10121    747.85%   7744.49%
                              14         5968    440.98%   8185.47%
                              16         4151    306.72%   8492.19%
                              18         2695    199.14%   8691.32%
                              20         1483    109.58%   8800.90%
                              22         1938    143.20%   8944.10%
                              24         1948    143.94%   9088.04%
                              26         1711    126.43%   9214.47%
                              28          603     44.56%   9259.02%
                              30         1132     83.64%   9342.67%
                              32         1252     92.51%   9435.18%
                              34          582     43.00%   9478.18%
                              36          928     68.57%   9546.75%
                              38          223     16.48%   9563.23%
                              40          307     22.68%   9585.92%
                              42         1194     88.23%   9674.14%
                              44          490     36.21%   9710.35%
                              46          676     49.95%   9760.30%
                              48         1112     82.17%   9842.46%
                              50           71      5.25%   9847.71%
                              52          587     43.37%   9891.09%
                              54          400     29.56%   9920.64%
                              56            6      0.44%   9921.08%
                              58           14      1.03%   9922.12%
                              60            4      0.30%   9922.41%
                              62            8      0.59%   9923.01%
                              64           22      1.63%   9924.63%
                              66           19      1.40%   9926.04%
                              68            2      0.15%   9926.18%
                              70            2      0.15%   9926.33%
                              72            1      0.07%   9926.40%
                              74            1      0.07%   9926.48%
                              76            0      0.00%   9926.48%
                              78            0      0.00%   9926.48%
                              80            0      0.00%   9926.48%
                              82            0      0.00%   9926.48%
                              84           20      1.48%   9927.96%
                              86            0      0.00%   9927.96%
                              88            2      0.15%   9928.10%
                              90           10      0.74%   9928.84%
                              92           21      1.55%   9930.39%
                              94           28      2.07%   9932.46%
                              96           28      2.07%   9934.53%
                              98           23      1.70%   9936.23%
cpu.IQ:residence:MemWrite.overflows               863                      
cpu.IQ:residence:MemWrite.max_value               300                      
cpu.IQ:residence:MemWrite.end_dist

cpu.IQ:residence:IprAccess.start_dist                          # cycles from dispatch to issue
cpu.IQ:residence:IprAccess.samples                  0                      
cpu.IQ:residence:IprAccess.min_value                0                      
                               0            0                      
                               2            0                      
                               4            0                      
                               6            0                      
                               8            0                      
                              10            0                      
                              12            0                      
                              14            0                      
                              16            0                      
                              18            0                      
                              20            0                      
                              22            0                      
                              24            0                      
                              26            0                      
                              28            0                      
                              30            0                      
                              32            0                      
                              34            0                      
                              36            0                      
                              38            0                      
                              40            0                      
                              42            0                      
                              44            0                      
                              46            0                      
                              48            0                      
                              50            0                      
                              52            0                      
                              54            0                      
                              56            0                      
                              58            0                      
                              60            0                      
                              62            0                      
                              64            0                      
                              66            0                      
                              68            0                      
                              70            0                      
                              72            0                      
                              74            0                      
                              76            0                      
                              78            0                      
                              80            0                      
                              82            0                      
                              84            0                      
                              86            0                      
                              88            0                      
                              90            0                      
                              92            0                      
                              94            0                      
                              96            0                      
                              98            0                      
cpu.IQ:residence:IprAccess.max_value                0                      
cpu.IQ:residence:IprAccess.end_dist

cpu.IQ:residence:InstPrefetch.start_dist                       # cycles from dispatch to issue
cpu.IQ:residence:InstPrefetch.samples               0                      
cpu.IQ:residence:InstPrefetch.min_value             0                      
                               0            0                      
                               2            0                      
                               4            0                      
                               6            0                      
                               8            0                      
                              10            0                      
                              12            0                      
                              14            0                      
                              16            0                      
                              18            0                      
                              20            0                      
                              22            0                      
                              24            0                      
                              26            0                      
                              28            0                      
                              30            0                      
                              32            0                      
                              34            0                      
                              36            0                      
                              38            0                      
                              40            0                      
                              42            0                      
                              44            0                      
                              46            0                      
                              48            0                      
                              50            0                      
                              52            0                      
                              54            0                      
                              56            0                      
                              58            0                      
                              60            0                      
                              62            0                      
                              64            0                      
                              66            0                      
                              68            0                      
                              70            0                      
                              72            0                      
                              74            0                      
                              76            0                      
                              78            0                      
                              80            0                      
                              82            0                      
                              84            0                      
                              86            0                      
                              88            0                      
                              90            0                      
                              92            0                      
                              94            0                      
                              96            0                      
                              98            0                      
cpu.IQ:residence:InstPrefetch.max_value             0                      
cpu.IQ:residence:InstPrefetch.end_dist

cpu.ISSUE:(null)_delay.start_dist                              # cycles from operands ready to issue
cpu.ISSUE:(null)_delay.samples                      0                      
cpu.ISSUE:(null)_delay.min_value                    0                      
                               0            0                      
                               2            0                      
                               4            0                      
                               6            0                      
                               8            0                      
                              10            0                      
                              12            0                      
                              14            0                      
                              16            0                      
                              18            0                      
                              20            0                      
                              22            0                      
                              24            0                      
                              26            0                      
                              28            0                      
                              30            0                      
                              32            0                      
                              34            0                      
                              36            0                      
                              38            0                      
                              40            0                      
                              42            0                      
                              44            0                      
                              46            0                      
                              48            0                      
                              50            0                      
                              52            0                      
                              54            0                      
                              56            0                      
                              58            0                      
                              60            0                      
                              62            0                      
                              64            0                      
                              66            0                      
                              68            0                      
                              70            0                      
                              72            0                      
                              74            0                      
                              76            0                      
                              78            0                      
                              80            0                      
                              82            0                      
                              84            0                      
                              86            0                      
                              88            0                      
                              90            0                      
                              92            0                      
                              94            0                      
                              96            0                      
                              98            0                      
cpu.ISSUE:(null)_delay.max_value                    0                      
cpu.ISSUE:(null)_delay.end_dist

cpu.ISSUE:IntAlu_delay.start_dist                              # cycles from operands ready to issue
cpu.ISSUE:IntAlu_delay.samples                 343954                      
cpu.ISSUE:IntAlu_delay.min_value                    0                      
                               0       286765   8337.31%   8337.31%
                               2        24602    715.27%   9052.58%
                               4        16944    492.62%   9545.20%
                               6         9384    272.83%   9818.03%
                               8         5583    162.32%   9980.35%
                              10          605     17.59%   9997.94%
                              12           71      2.06%  10000.00%
                              14            0      0.00%  10000.00%
                              16            0      0.00%  10000.00%
                              18            0      0.00%  10000.00%
                              20            0      0.00%  10000.00%
                              22            0      0.00%  10000.00%
                              24            0      0.00%  10000.00%
                              26            0      0.00%  10000.00%
                              28            0      0.00%  10000.00%
                              30            0      0.00%  10000.00%
                              32            0      0.00%  10000.00%
                              34            0      0.00%  10000.00%
                              36            0      0.00%  10000.00%
                              38            0      0.00%  10000.00%
                              40            0      0.00%  10000.00%
                              42            0      0.00%  10000.00%
                              44            0      0.00%  10000.00%
                              46            0      0.00%  10000.00%
                              48            0      0.00%  10000.00%
                              50            0      0.00%  10000.00%
                              52            0      0.00%  10000.00%
                              54            0      0.00%  10000.00%
                              56            0      0.00%  10000.00%
                              58            0      0.00%  10000.00%
                              60            0      0.00%  10000.00%
                              62            0      0.00%  10000.00%
                              64            0      0.00%  10000.00%
                              66            0      0.00%  10000.00%
                              68            0      0.00%  10000.00%
                              70            0      0.00%  10000.00%
                              72            0      0.00%  10000.00%
                              74            0      0.00%  10000.00%
                              76            0      0.00%  10000.00%
                              78            0      0.00%  10000.00%
                              80            0      0.00%  10000.00%
                              82            0      0.00%  10000.00%
                              84            0      0.00%  10000.00%
                              86            0      0.00%  10000.00%
                              88            0      0.00%  10000.00%
                              90            0      0.00%  10000.00%
                              92            0      0.00%  10000.00%
                              94            0      0.00%  10000.00%
                              96            0      0.00%  10000.00%
                              98            0      0.00%  10000.00%
cpu.ISSUE:IntAlu_delay.max_value                   12                      
cpu.ISSUE:IntAlu_delay.end_dist

cpu.ISSUE:IntMult_delay.start_dist                             # cycles from operands ready to issue
cpu.ISSUE:IntMult_delay.samples                    10                      
cpu.ISSUE:IntMult_delay.min_value                   0                      
                               0           10  10000.00%  10000.00%
                               2            0      0.00%  10000.00%
                               4            0      0.00%  10000.00%
                               6            0      0.00%  10000.00%
                               8            0      0.00%  10000.00%
                              10            0      0.00%  10000.00%
                              12            0      0.00%  10000.00%
                              14            0      0.00%  10000.00%
                              16            0      0.00%  10000.00%
                              18            0      0.00%  10000.00%
                              20            0      0.00%  10000.00%
                              22            0      0.00%  10000.00%
                              24            0      0.00%  10000.00%
                              26            0      0.00%  10000.00%
                              28            0      0.00%  10000.00%
                              30            0      0.00%  10000.00%
                              32            0      0.00%  10000.00%
                              34            0      0.00%  10000.00%
                              36            0      0.00%  10000.00%
                              38            0      0.00%  10000.00%
                              40            0      0.00%  10000.00%
                              42            0      0.00%  10000.00%
                              44            0      0.00%  10000.00%
                              46            0      0.00%  10000.00%
                              48            0      0.00%  10000.00%
                              50            0      0.00%  10000.00%
                              52            0      0.00%  10000.00%
                              54            0      0.00%  10000.00%
                              56            0      0.00%  10000.00%
                              58            0      0.00%  10000.00%
                              60            0      0.00%  10000.00%
                              62            0      0.00%  10000.00%
                              64            0      0.00%  10000.00%
                              66            0      0.00%  10000.00%
                              68            0      0.00%  10000.00%
                              70            0      0.00%  10000.00%
                              72            0      0.00%  10000.00%
                              74            0      0.00%  10000.00%
                              76            0      0.00%  10000.00%
                              78            0      0.00%  10000.00%
                              80            0      0.00%  10000.00%
                              82            0      0.00%  10000.00%
                              84            0      0.00%  10000.00%
                              86            0      0.00%  10000.00%
                              88            0      0.00%  10000.00%
                              90            0      0.00%  10000.00%
                              92            0      0.00%  10000.00%
                              94            0      0.00%  10000.00%
                              96            0      0.00%  10000.00%
                              98            0      0.00%  10000.00%
cpu.ISSUE:IntMult_delay.max_value                   0                      
cpu.ISSUE:IntMult_delay.end_dist

cpu.ISSUE:IntDiv_delay.start_dist                              # cycles from operands ready to issue
cpu.ISSUE:IntDiv_delay.samples                      0                      
cpu.ISSUE:IntDiv_delay.min_value                    0                      
                               0            0                      
                               2            0                      
                               4            0                      
                               6            0                      
                               8            0                      
                              10            0                      
                              12            0                      
                              14            0                      
                              16            0                      
                              18            0                      
                              20            0                      
                              22            0                      
                              24            0                      
                              26            0                      
                              28            0                      
                              30            0                      
                              32            0                      
                              34            0                      
                              36            0                      
                              38            0                      
                              40            0                      
                              42            0                      
                              44            0                      
                              46            0                      
                              48            0                      
                              50            0                      
                              52            0                      
                              54            0                      
                              56            0                      
                              58            0                      
                              60            0                      
                              62            0                      
[...]
cpu.icache.read_miss_rate                    0.002794                       # miss rate for read accesses
cpu.icache.read_misses                            690                       # number of read misses
cpu.icache.read_mshr_hits                         132                       # number of read MSHR hits
cpu.icache.read_mshr_miss_latency               61512                       # number of read MSHR miss cycles
cpu.icache.read_mshr_miss_rate               0.002259                       # mshr miss rate for read accesses
cpu.icache.read_mshr_misses                       558                       # number of read MSHR misses
cpu.icache.replacements                            12                       # number of replacements
cpu.icache.sampled_refs                           482                       # Sample count of references to valid blocks.
cpu.icache.soft_prefetch_mshr_full                  0                       # number of mshr full events for SW prefetching instrutions
cpu.icache.tagsinuse                       324.141403                       # Cycle average of tags in use
cpu.icache.total_refs                          246286                       # Total number of references to valid blocks.
cpu.icache.warmup_cycle                             0                       # Cycle when the warmup percentage was hit.
cpu.icache.writebacks                               0                       # number of writebacks
cpu.iq:RQ:rdy_inst                            1009659                       # Number of ready instructions (cum)
cpu.iq:RQ:rdy_inst_dist_0_mean               4.274250                       # standard deviation of ready rate
cpu.iq:RQ:rdy_inst_dist_0_stdev              5.462380                       # standard deviation of ready rate
**Ignore: cpu.iq:RQ:rdy_inst_dist_0_TOT        236219                       # standard deviation of ready rate
cpu.iq:RQ:rdy_rate                           4.274250                       # Number of ready insts per cycle
cpu.iq:RQ:rdy_x_count                          570766                       # number of insts that become ready (cum)
cpu.iq:RQ:rdy_x_max                                28                       # largest number of insts that become ready
cpu.iq:RQ:rdy_x_rate                         2.416258                       # number of insts that become ready per cycle
cpu.iq:avg_residency                        15.567213                       # Average IQ residency
cpu.iq:cum_num_insts                          8783115                       # Total occupancy
cpu.iq:current_count                               64                       # Occupancy this cycle
cpu.iq:empty_count                              59542                       # Number of empty cycles
cpu.iq:empty_rate                           25.206270                       # Fraction of cycles empty
cpu.iq:full_count                               83984                       # Number of full cycles
cpu.iq:full_rate                            35.553448                       # Fraction of cycles full
cpu.iq:occ_dist_0.start_dist                                   # IQ Occupancy per cycle
cpu.iq:occ_dist_0.samples                      236219                      
cpu.iq:occ_dist_0.min_value                         0                      
                               0        60960              2580.66%
                               2         3370              2723.32%
                               4         1709              2795.67%
                               6         7436              3110.46%
                               8         5243              3332.42%
                              10         2010              3417.51%
                              12          960              3458.15%
                              14         1599              3525.84%
                              16         1078              3571.47%
                              18          962              3612.20%
                              20          845              3647.97%
                              22         1233              3700.17%
                              24         1441              3761.17%
                              26          889              3798.81%
                              28         1245              3851.51%
                              30         1667              3922.08%
                              32         2029              4007.98%
                              34         1863              4086.84%
                              36         1691              4158.43%
                              38         1796              4234.46%
                              40         3107              4365.99%
                              42         2370              4466.32%
                              44         4864              4672.23%
                              46         5019              4884.70%
                              48         3386              5028.05%
                              50         4101              5201.66%
                              52         4513              5392.71%
                              54         4480              5582.36%
                              56         4210              5760.59%
                              58         6509              6036.14%
                              60         3569              6187.22%
                              62         3516              6336.07%
                              64        86549             10000.00%
cpu.iq:occ_dist_0.max_value                        64                      
cpu.iq:occ_dist_0.end_dist

cpu.iq:occ_rate                             37.182085                       # Average occupancy
cpu.iq:peak_occupancy                              64                       # Peak IQ occupancy
cpu.l2.avg_blocked_cycles_no_mshrs       <err: div-0>                       # average number of cycles each access was blocked
cpu.l2.avg_blocked_cycles_no_targets     <err: div-0>                       # average number of cycles each access was blocked
cpu.l2.avg_refs                          <err: div-0>                       # Average number of references to valid blocks.
cpu.l2.blocked_no_mshrs                             0                       # number of cycles access was blocked
cpu.l2.blocked_no_targets                           0                       # number of cycles access was blocked
cpu.l2.blocked_cycles_no_mshrs                      0                       # number of cycles access was blocked
cpu.l2.blocked_cycles_no_targets                    0                       # number of cycles access was blocked
cpu.l2.cache_copies                                 0                       # number of cache copies performed
cpu.l2.demand_accesses                            966                       # number of demand (read+write) accesses
cpu.l2.demand_avg_miss_latency             128.102083                       # average overall miss latency
cpu.l2.demand_avg_mshr_miss_latency        114.168750                       # average overall mshr miss latency
cpu.l2.demand_hits                                  6                       # number of demand (read+write) hits
cpu.l2.demand_miss_latency                     122978                       # number of demand (read+write) miss cycles
cpu.l2.demand_miss_rate                      0.993789                       # miss rate for demand accesses
cpu.l2.demand_misses                              960                       # number of demand (read+write) misses
cpu.l2.demand_mshr_hits                             0                       # number of demand (read+write) MSHR hits
cpu.l2.demand_mshr_miss_latency                109602                       # number of demand (read+write) MSHR miss cycles
cpu.l2.demand_mshr_miss_rate                 0.993789                       # mshr miss rate for demand accesses
cpu.l2.demand_mshr_misses                         960                       # number of demand (read+write) MSHR misses
cpu.l2.falru_accesses                             966                       # The number of accesses to the FA LRU cache.
cpu.l2.falru_hits_128K                              6                       # Hits in a 128K cache
cpu.l2.falru_hits_256K                              6                       # Hits in a 256K cache
cpu.l2.falru_hits_512K                              6                       # Hits in a 512K cache
cpu.l2.falru_hits_1M                                6                       # Hits in a 1M cache
cpu.l2.falru_hits_2M                                6                       # Hits in a 2M cache
cpu.l2.falru_misses_128K                          960                       # Misses in a 128K cache
cpu.l2.falru_misses_256K                          960                       # Misses in a 256K cache
cpu.l2.falru_misses_512K                          960                       # Misses in a 512K cache
cpu.l2.falru_misses_1M                            960                       # Misses in a 1M cache
cpu.l2.falru_misses_2M                            960                       # Misses in a 2M cache
cpu.l2.fast_writes                                  0                       # number of fast writes performed
cpu.l2.mshr_cap_events                              0                       # number of times MSHR cap was activated
cpu.l2.no_allocate_misses                           0                       # Number of misses that were no-allocate
cpu.l2.overall_accesses                           966                       # number of overall (read+write) accesses
cpu.l2.overall_avg_miss_latency            128.102083                       # average overall miss latency
cpu.l2.overall_avg_mshr_miss_latency       114.168750                       # average overall mshr miss latency
cpu.l2.overall_avg_mshr_uncacheable_latency <err: div-0>                       # average overall mshr uncacheable latency
cpu.l2.overall_hits                                 6                       # number of overall hits
cpu.l2.overall_miss_latency                    122978                       # number of overall miss cycles
cpu.l2.overall_miss_rate                     0.993789                       # miss rate for overall accesses
cpu.l2.overall_misses                             960                       # number of overall misses
cpu.l2.overall_mshr_hits                            0                       # number of overall MSHR hits
cpu.l2.overall_mshr_miss_latency               109602                       # number of overall MSHR miss cycles
cpu.l2.overall_mshr_miss_rate                0.993789                       # mshr miss rate for overall accesses
cpu.l2.overall_mshr_misses                        960                       # number of overall MSHR misses
cpu.l2.overall_mshr_uncacheable_latency             0                       # number of overall MSHR uncacheable cycles
cpu.l2.overall_mshr_uncacheable_misses              0                       # number of overall MSHR uncacheable misses
cpu.l2.prefetcher.num_hwpf_already_in_cache            0                       # number of hwpf that were already in the cache
cpu.l2.prefetcher.num_hwpf_already_in_mshr            0                       # number of hwpf that were already in mshr
cpu.l2.prefetcher.num_hwpf_already_in_prefetcher            0                       # number of hwpf that were already in the prefetch queue
cpu.l2.prefetcher.num_hwpf_evicted                  0                       # number of hwpf removed due to no buffer left
cpu.l2.prefetcher.num_hwpf_identified               0                       # number of hwpf identified
cpu.l2.prefetcher.num_hwpf_issued                   0                       # number of hwpf issued
cpu.l2.prefetcher.num_hwpf_removed_MSHR_hit            0                       # number of hwpf removed because MSHR allocated
cpu.l2.prefetcher.num_hwpf_span_page                0                       # number of hwpf spanning a virtual page
cpu.l2.prefetcher.num_hwpf_squashed_from_miss            0                       # number of hwpf that got squashed due to a miss aborting calculation time
cpu.l2.read_accesses                              966                       # number of read accesses(hits+misses)
cpu.l2.read_avg_miss_latency               128.102083                       # average read miss latency
cpu.l2.read_avg_mshr_miss_latency          114.168750                       # average read mshr miss latency
cpu.l2.read_hits                                    6                       # number of read hits
cpu.l2.read_miss_latency                       122978                       # number of read miss cycles
cpu.l2.read_miss_rate                        0.993789                       # miss rate for read accesses
cpu.l2.read_misses                                960                       # number of read misses
cpu.l2.read_mshr_miss_latency                  109602                       # number of read MSHR miss cycles
cpu.l2.read_mshr_miss_rate                   0.993789                       # mshr miss rate for read accesses
cpu.l2.read_mshr_misses                           960                       # number of read MSHR misses
cpu.l2.replacements                                 0                       # number of replacements
cpu.l2.sampled_refs                                 0                       # Sample count of references to valid blocks.
cpu.l2.soft_prefetch_mshr_full                      0                       # number of mshr full events for SW prefetching instrutions
cpu.l2.tagsinuse                           639.081441                       # Cycle average of tags in use
cpu.l2.total_refs                                   0                       # Total number of references to valid blocks.
cpu.l2.warmup_cycle                                 0                       # Cycle when the warmup percentage was hit.
cpu.l2.writebacks                                   0                       # number of writebacks
cpu.numCycles                                  236219                       # number of cpu cycles simulated
cpu.toL2Bus.addr_idle_cycles                   233771                       # number of cycles bus was idle
cpu.toL2Bus.addr_idle_fraction               0.989641                       # fraction of time addr bus was idle
cpu.toL2Bus.addr_queued                      3.930642                       # average queueing delay seen by bus request
cpu.toL2Bus.addr_queued_cycles                   3797                       # total number of queued cycles for all requests
cpu.toL2Bus.addr_requests                         966                       # number of transmissions on bus
cpu.toL2Bus.bus_blocked                             0                       # number of times bus was blocked
cpu.toL2Bus.bus_blocked_cycles                      0                       # number of cycles bus was blocked
cpu.toL2Bus.bus_blocked_fraction                    0                       # fraction of time bus was blocked
cpu.toL2Bus.data_idle_cycles                   233896                       # number of cycles bus was idle
cpu.toL2Bus.data_idle_fraction               0.990170                       # fraction of time data bus was idle
cpu.toL2Bus.data_queued                             1                       # average queueing delay seen by bus request
cpu.toL2Bus.data_queued_cycles                    966                       # total number of queued cycles for all requests
cpu.toL2Bus.data_requests                         966                       # number of transmissions on bus
cpu.toL2Bus.null_grants                            40                       # number of null grants (wasted cycles)
cpu.workload.MainMem.page_count                    10                       # total number of pages allocated
cpu.workload.MainMem.page_mem                      80                       # total size of memory pages allocated
cpu.workload.MainMem.ptab_accesses            1178434                       # total page table accessess
cpu.workload.MainMem.ptab_miss_rate            0.0545                       # first level page table miss rate
cpu.workload.MainMem.ptab_misses                64282                       # total first level page table misses
cpu.workload.PROG:num_syscalls                     18                       # Number of system calls
cpuinst_class_dist.start_dist
                   All ops ready            0      0.00%            # Operand status at dispatch
                One op not ready            0      0.00%            # Operand status at dispatch
           None rdy, mult chains            0      0.00%            # Operand status at dispatch
           None rdy, one chained            0      0.00%            # Operand status at dispatch
        None rdy, all self-timed            0      0.00%            # Operand status at dispatch
cpuinst_class_dist.end_dist
host_inst_rate                                  90805                       # Simulator instruction rate (inst/s)
host_mem_usage                                  14452                       # Number of bytes of host memory used
host_seconds                                     5.51                       # Real time elapsed on the host
host_tick_rate                                  42897                       # Simulator tick rate (ticks/s)
ram.accesses                                      960                       # total number of accesses
ram.bytes_requested                                 0                       # total number of bytes requested
ram.bytes_sent                                      0                       # total number of bytes sent
ram.compressed_responses                            0                       # total number of accesses that are compressed
sim_freq                                    200000000                       # Frequency of simulated ticks
sim_insts                                      500007                       # Number of instructions simulated
sim_seconds                                  0.001181                       # Number of seconds simulated
sim_ticks                                      236218                       # Number of ticks simulated
toMemBus.addr_idle_cycles                      233789                       # number of cycles bus was idle
toMemBus.addr_idle_fraction                  0.989717                       # fraction of time addr bus was idle
toMemBus.addr_queued                        11.783333                       # average queueing delay seen by bus request
toMemBus.addr_queued_cycles                     11312                       # total number of queued cycles for all requests
toMemBus.addr_requests                            960                       # number of transmissions on bus
toMemBus.bus_blocked                                0                       # number of times bus was blocked
toMemBus.bus_blocked_cycles                         0                       # number of cycles bus was blocked
toMemBus.bus_blocked_fraction                       0                       # fraction of time bus was blocked
toMemBus.data_idle_cycles                      231013                       # number of cycles bus was idle
toMemBus.data_idle_fraction                  0.977965                       # fraction of time data bus was idle
toMemBus.data_queued                         1.385417                       # average queueing delay seen by bus request
toMemBus.data_queued_cycles                      1330                       # total number of queued cycles for all requests
toMemBus.data_requests                            960                       # number of transmissions on bus
toMemBus.null_grants                                0                       # number of null grants (wasted cycles)

---------- End Simulation Statistics   ----------
