
---------- Begin Simulation Statistics ----------
cpu.COM:IPB                                  6.177777                       # Committed instructions per branch
cpu.COM:IPB_0                                6.174517                       # Committed instructions per branch
cpu.COM:IPB_1                                6.187812                       # Committed instructions per branch
cpu.COM:IPC                                  2.155084                       # Committed instructions per cycle
cpu.COM:IPC_0                                1.625686                       # Committed instructions per cycle
cpu.COM:IPC_1                                0.529398                       # Committed instructions per cycle
cpu.COM:branches                               214583                       # Number of branches committed
cpu.COM:branches_0                             161956                       # Number of branches committed
cpu.COM:branches_1                              52627                       # Number of branches committed
cpu.COM:bw_lim_avg                            21.5798                       # Avg number not committed in cycles BW limited
cpu.COM:bw_lim_avg_0                          13.5457                       # Avg number not committed in cycles BW limited
cpu.COM:bw_lim_avg_1                           8.0340                       # Avg number not committed in cycles BW limited
cpu.COM:bw_lim_events                           40431                       # number cycles where commit BW limit reached
cpu.COM:bw_lim_rate                            1.4184                       # Average number not committed due to BW (over all cycles)
cpu.COM:bw_lim_rate_0                          0.8903                       # Average number not committed due to BW (over all cycles)
cpu.COM:bw_lim_rate_1                          0.5281                       # Average number not committed due to BW (over all cycles)
cpu.COM:bw_lim_stdev_0_mean                   13.5457                       # standard deviation of bw_lim_avg value
cpu.COM:bw_lim_stdev_0_stdev                  14.4791                       # standard deviation of bw_lim_avg value
**Ignore: cpu.COM:bw_lim_stdev_0_TOT       40431.0000                       # standard deviation of bw_lim_avg value
cpu.COM:bw_lim_stdev_1_mean                    8.0340                       # standard deviation of bw_lim_avg value
cpu.COM:bw_lim_stdev_1_stdev                  20.0407                       # standard deviation of bw_lim_avg value
**Ignore: cpu.COM:bw_lim_stdev_1_TOT       40431.0000                       # standard deviation of bw_lim_avg value
cpu.COM:bw_limited                             872491                       # number of insts not committed due to BW limits
cpu.COM:bw_limited_0                           547667                       # number of insts not committed due to BW limits
cpu.COM:bw_limited_1                           324824                       # number of insts not committed due to BW limits
cpu.COM:committed_per_cycle.start_dist                         # Number of insts commited each cycle
cpu.COM:committed_per_cycle.samples            327796                      
cpu.COM:committed_per_cycle.min_value               0                      
                               0         3395    103.57%           
                               1        82423   2514.46%           
                               2        58547   1786.08%           
                               3        30471    929.57%           
                               4        27859    849.89%           
                               5        11958    364.80%           
                               6        15090    460.35%           
                               7         9357    285.45%           
                               8        88696   2705.83%           
cpu.COM:committed_per_cycle.max_value               8                      
cpu.COM:committed_per_cycle.end_dist

cpu.COM:count                                 1325646                       # Number of instructions committed
cpu.COM:count_0                               1000000                       # Number of instructions committed
cpu.COM:count_1                                325646                       # Number of instructions committed
cpu.COM:loads                                  377908                       # Number of loads committed
cpu.COM:loads_0                                297370                       # Number of loads committed
cpu.COM:loads_1                                 80538                       # Number of loads committed
cpu.COM:membars                                     0                       # Number of memory barriers committed
cpu.COM:membars_0                                   0                       # Number of memory barriers committed
cpu.COM:membars_1                                   0                       # Number of memory barriers committed
cpu.COM:refs                                   511043                       # Number of memory references committed
cpu.COM:refs_0                                 392508                       # Number of memory references committed
cpu.COM:refs_1                                 118535                       # Number of memory references committed
cpu.COM:stores                                 133135                       # Number of stores committed
cpu.COM:stores_0                                95138                       # Number of stores committed
cpu.COM:stores_1                                37997                       # Number of stores committed
cpu.COM:swp_count                                2117                       # Number of s/w prefetches committed
cpu.COM:swp_count_0                              1316                       # Number of s/w prefetches committed
cpu.COM:swp_count_1                               801                       # Number of s/w prefetches committed
cpu.DDQ:count                                89498340                       # cum count of instructions
cpu.DDQ:count_0                              59977303                       # cum count of instructions
cpu.DDQ:count_1                              29521037                       # cum count of instructions
cpu.DDQ:rate                                      145                       # average number of instructions
cpu.DDQ:rate_0                                     98                       # average number of instructions
cpu.DDQ:rate_1                                     48                       # average number of instructions
cpu.DIS:chain_creation.start_dist
     Inst has no outstanding IDEPS            0      0.00%            # Reason that chain head was created
      IDEP chain reached max depth            0      0.00%            # Reason that chain head was created
                    Inst is a load            0      0.00%            # Reason that chain head was created
  Chain has multiple chained IDEPS            0      0.00%            # Reason that chain head was created
cpu.DIS:chain_creation.end_dist
cpu.DIS:chain_head_frac                             0                       # fraction of insts that are chain heads
cpu.DIS:chain_head_frac_0                           0                       # fraction of insts that are chain heads
cpu.DIS:chain_head_frac_1                           0                       # fraction of insts that are chain heads
cpu.DIS:chain_heads                                 0                       # number insts that are chain heads
cpu.DIS:chain_heads_0                               0                       # number insts that are chain heads
cpu.DIS:chain_heads_1                               0                       # number insts that are chain heads
cpu.DIS:chains_insuf                                0                       # number of times thread had insuf chains
cpu.DIS:chains_insuf_0                              0                       # number of times thread had insuf chains
cpu.DIS:chains_insuf_1                              0                       # number of times thread had insuf chains
cpu.DIS:chains_insuf_rate                           0                       # rate that thread had insuf chains
cpu.DIS:chains_insuf_rate_0                         0                       # rate that thread had insuf chains
cpu.DIS:chains_insuf_rate_1                         0                       # rate that thread had insuf chains
cpu.DIS:count                                 1994687                       # cumulative count of dispatched insts
cpu.DIS:count_0                               1433668                       # cumulative count of dispatched insts
cpu.DIS:count_1                                561019                       # cumulative count of dispatched insts
cpu.DIS:insufficient_chains                         0                       # Number of instances where dispatch stopped
cpu.DIS:mod_n_stall_avg_free                 no value                       # avg free slots per cycle
cpu.DIS:mod_n_stall_avg_free_0               no value                       # avg free slots per cycle
cpu.DIS:mod_n_stall_avg_free_1               no value                       # avg free slots per cycle
cpu.DIS:mod_n_stall_frac                            0                       # avg stalls per cycle
cpu.DIS:mod_n_stall_frac_0                          0                       # avg stalls per cycle
cpu.DIS:mod_n_stall_frac_1                          0                       # avg stalls per cycle
cpu.DIS:mod_n_stall_free                            0                       # free slots when dispatch stalled due to mod-n
cpu.DIS:mod_n_stall_free_0                          0                       # free slots when dispatch stalled due to mod-n
cpu.DIS:mod_n_stall_free_1                          0                       # free slots when dispatch stalled due to mod-n
cpu.DIS:mod_n_stalls                                0                       # cycles where dispatch stalled due to mod-n
cpu.DIS:mod_n_stalls_0                              0                       # cycles where dispatch stalled due to mod-n
cpu.DIS:mod_n_stalls_1                              0                       # cycles where dispatch stalled due to mod-n
cpu.DIS:one_rdy_insts                               0                       # number of 2-op insts w/ one rdy op
cpu.DIS:one_rdy_insts_0                             0                       # number of 2-op insts w/ one rdy op
cpu.DIS:one_rdy_insts_1                             0                       # number of 2-op insts w/ one rdy op
cpu.DIS:one_rdy_ratio                        no value                       # fraction of 2-op insts w/ one ready op
cpu.DIS:one_rdy_ratio_0                      no value                       # fraction of 2-op insts w/ one ready op
cpu.DIS:one_rdy_ratio_1                      no value                       # fraction of 2-op insts w/ one ready op
cpu.DIS:op_count                              2762181                       # number of operations dispatched
cpu.DIS:op_count_0                            1994446                       # number of operations dispatched
cpu.DIS:op_count_1                             767735                       # number of operations dispatched
cpu.DIS:op_rate                              4.490439                       # dispatched operations per cycle
cpu.DIS:op_rate_0                            3.242343                       # dispatched operations per cycle
cpu.DIS:op_rate_1                            1.248096                       # dispatched operations per cycle
cpu.DIS:rate                                 3.242734                       # dispatched_insts per cycle
cpu.DIS:rate_0                               2.330694                       # dispatched_insts per cycle
cpu.DIS:rate_1                               0.912041                       # dispatched_insts per cycle
cpu.DIS:second_choice_clust                         0                       # Number of instructions dispatched to second-choice cluster
cpu.DIS:second_choice_stall                         0                       # Number of instructions stalled when first choice not available
cpu.DIS:serialize_stall_cycles                      0                       # count of cycles dispatch stalled for serializing inst
cpu.DIS:serialize_stall_cycles_0                    0                       # count of cycles dispatch stalled for serializing inst
cpu.DIS:serialize_stall_cycles_1                    0                       # count of cycles dispatch stalled for serializing inst
cpu.DIS:serializing_insts                           0                       # count of serializing insts dispatched
cpu.DIS:serializing_insts_0                         0                       # count of serializing insts dispatched
cpu.DIS:serializing_insts_1                         0                       # count of serializing insts dispatched
cpu.DIS:two_input_insts                             0                       # Number of two input instructions queued
cpu.DIS:two_input_insts_0                           0                       # Number of two input instructions queued
cpu.DIS:two_input_insts_1                           0                       # Number of two input instructions queued
cpu.DIS:two_input_ratio                             0                       # fraction of all insts having 2 inputs
cpu.DIS:two_input_ratio_0                           0                       # fraction of all insts having 2 inputs
cpu.DIS:two_input_ratio_1                           0                       # fraction of all insts having 2 inputs
cpu.FETCH:branch_count                         424815                       # Number of branches fetched
cpu.FETCH:branch_count_0                       296694                       # Number of branches fetched
cpu.FETCH:branch_count_1                       128121                       # Number of branches fetched
cpu.FETCH:branch_rate                        0.690616                       # Number of branch fetches per cycle
cpu.FETCH:branch_rate_0                      0.482331                       # Number of branch fetches per cycle
cpu.FETCH:branch_rate_1                      0.208284                       # Number of branch fetches per cycle
cpu.FETCH:chance_pct_0                       0.708860                       # Percentage of all fetch chances
cpu.FETCH:chance_pct_1                       0.291140                       # Percentage of all fetch chances
cpu.FETCH:chances                              466996                       # Number of fetch opportunities
cpu.FETCH:chances_0                            331035                       # Number of fetch opportunities
cpu.FETCH:chances_1                            135961                       # Number of fetch opportunities
cpu.FETCH:choice                               466996                       # Number of times we fetched from our first choice
cpu.FETCH:choice.start_dist
                               0       466996    100.00%            # Number of times we fetched from our first choice
                               1            0      0.00%            # Number of times we fetched from our first choice
cpu.FETCH:choice.end_dist
cpu.FETCH:count                               3155378                       # Number of instructions fetched
cpu.FETCH:count_0                             2121084                       # Number of instructions fetched
cpu.FETCH:count_1                             1034294                       # Number of instructions fetched
cpu.FETCH:decisions                            466996                       # number of times the fetch stage chose between threads
cpu.FETCH:idle_cycles                          148129                       # number of cycles where fetch stage was idle
cpu.FETCH:idle_icache_blocked_cycles                0                       # number of cycles where fetch was idle due to icache blocked
cpu.FETCH:idle_rate                             24.08                       # percent of cycles fetch stage was idle
cpu.FETCH:prio_changes                              0                       # Number of times priorities were changed
cpu.FETCH:prio_changes_0                            0                       # Number of times priorities were changed
cpu.FETCH:prio_changes_1                            0                       # Number of times priorities were changed
cpu.FETCH:rate                               5.129653                       # Number of inst fetches per cycle
cpu.FETCH:rate_0                             3.448216                       # Number of inst fetches per cycle
cpu.FETCH:rate_1                             1.681437                       # Number of inst fetches per cycle
cpu.FETCH:rate_dist.start_dist                                 # Number of instructions fetched each cycle (Total)
cpu.FETCH:rate_dist.samples                    466996                      
cpu.FETCH:rate_dist.min_value                       0                      
                               0         1943     41.61%           
                               1        17377    372.10%           
                               2        17226    368.87%           
                               3        20269    434.03%           
                               4        16259    348.16%           
                               5        19208    411.31%           
                               6        53243   1140.12%           
                               7         9560    204.71%           
                               8       311911   6679.09%           
cpu.FETCH:rate_dist.max_value                       8                      
cpu.FETCH:rate_dist.end_dist

cpu.FETCH:rate_dist_0.start_dist                               # Number of instructions fetched each cycle (Thread 0)
cpu.FETCH:rate_dist_0.samples                  331035                      
cpu.FETCH:rate_dist_0.min_value                     0                      
                               0          673     20.33%           
                               1        15903    480.40%           
                               2        16062    485.21%           
                               3        19139    578.16%           
                               4        14532    438.99%           
                               5        17755    536.35%           
                               6        50254   1518.09%           
                               7         6523    197.05%           
                               8       190194   5745.43%           
cpu.FETCH:rate_dist_0.max_value                     8                      
cpu.FETCH:rate_dist_0.end_dist

cpu.FETCH:rate_dist_1.start_dist                               # Number of instructions fetched each cycle (Thread 1)
cpu.FETCH:rate_dist_1.samples                  135961                      
cpu.FETCH:rate_dist_1.min_value                     0                      
                               0         1270     93.41%           
                               1         1474    108.41%           
                               2         1164     85.61%           
                               3         1130     83.11%           
                               4         1727    127.02%           
                               5         1453    106.87%           
                               6         2989    219.84%           
                               7         3037    223.37%           
                               8       121717   8952.35%           
cpu.FETCH:rate_dist_1.max_value                     8                      
cpu.FETCH:rate_dist_1.end_dist

cpu.IFQ:count                                19989497                       # cumulative IFQ occupancy
cpu.IFQ:full_count                             422698                       # cumulative IFQ full count
cpu.IFQ:full_count_0                           289153                       # cumulative IFQ full count
cpu.IFQ:full_count_1                           133545                       # cumulative IFQ full count
cpu.IFQ:full_rate                           68.717415                       # fraction of time (cycle's) IFQ was full
cpu.IFQ:full_rate_0                         47.007194                       # fraction of time (cycle's) IFQ was full
cpu.IFQ:full_rate_1                         21.710221                       # fraction of time (cycle's) IFQ was full
cpu.IFQ:latency                             10.021370                       # avg IFQ occupant latency (cycle's)
cpu.IFQ:latency_0                           13.942905                       # avg IFQ occupant latency (cycle's)
cpu.IFQ:latency_1                           35.630695                       # avg IFQ occupant latency (cycle's)
cpu.IFQ:occupancy                           32.496642                       # avg IFQ occupancy (inst's)
cpu.IFQ:qfull_iq_occ                         17185552                       # Number of insts in IQ when fetch-queue full
cpu.IFQ:qfull_iq_occ_0                        8094601                       # Number of insts in IQ when fetch-queue full
cpu.IFQ:qfull_iq_occ_1                        9090951                       # Number of insts in IQ when fetch-queue full
cpu.IFQ:qfull_iq_occ_dist_0.start_dist                         # Number of insts in IQ when fetch-queue full
cpu.IFQ:qfull_iq_occ_dist_0.samples            288048                      
cpu.IFQ:qfull_iq_occ_dist_0.min_value               0                      
                               0       124226   4312.68%           
                              10        19327    670.96%           
                              20        12940    449.23%           
                              30        23092    801.67%           
                              40        13891    482.25%           
                              50        22639    785.95%           
                              60        71933   2497.26%           
cpu.IFQ:qfull_iq_occ_dist_0.max_value              64                      
cpu.IFQ:qfull_iq_occ_dist_0.end_dist

cpu.IFQ:qfull_iq_occ_dist_1.start_dist                         # Number of insts in IQ when fetch-queue full
cpu.IFQ:qfull_iq_occ_dist_1.samples            288048                      
cpu.IFQ:qfull_iq_occ_dist_1.min_value               0                      
                               0       114808   3985.72%           
                              10        11667    405.04%           
                              20         8872    308.00%           
                              30        19629    681.45%           
                              40        13128    455.76%           
                              50        35833   1243.99%           
                              60        84111   2920.03%           
cpu.IFQ:qfull_iq_occ_dist_1.max_value              64                      
cpu.IFQ:qfull_iq_occ_dist_1.end_dist

cpu.IFQ:qfull_rob_occ                        28414982                       # Number of insts in ROB when fetch-queue full
cpu.IFQ:qfull_rob_occ_0                      14930509                       # Number of insts in ROB when fetch-queue full
cpu.IFQ:qfull_rob_occ_1                      13484473                       # Number of insts in ROB when fetch-queue full
cpu.IFQ:qfull_rob_occ_dist_0.start_dist                        # Number of insts in ROB when fetch-queue full
cpu.IFQ:qfull_rob_occ_dist_0.samples           288048                      
cpu.IFQ:qfull_rob_occ_dist_0.min_value              0                      
                               0        94390   3276.88%           
                              10         9437    327.62%           
                              20        17198    597.05%           
                              30        12576    436.59%           
                              40        15228    528.66%           
                              50        15193    527.45%           
                              60         9612    333.69%           
                              70        16381    568.69%           
                              80        21919    760.95%           
                              90        17906    621.63%           
                             100        12377    429.69%           
                             110        37499   1301.83%           
                             120         1137     39.47%           
                             130          652     22.64%           
                             140          369     12.81%           
                             150          587     20.38%           
                             160          322     11.18%           
                             170          292     10.14%           
                             180          950     32.98%           
                             190         4023    139.66%           
                             200            0      0.00%           
cpu.IFQ:qfull_rob_occ_dist_0.max_value            196                      
cpu.IFQ:qfull_rob_occ_dist_0.end_dist

cpu.IFQ:qfull_rob_occ_dist_1.start_dist                        # Number of insts in ROB when fetch-queue full
cpu.IFQ:qfull_rob_occ_dist_1.samples           288048                      
cpu.IFQ:qfull_rob_occ_dist_1.min_value              0                      
                               0        93761   3255.05%           
                              10         9177    318.59%           
                              20         6714    233.09%           
                              30         7466    259.19%           
                              40        11825    410.52%           
                              50        15847    550.15%           
                              60        36313   1260.66%           
                              70        88175   3061.12%           
                              80         4741    164.59%           
                              90         1860     64.57%           
                             100         1777     61.69%           
                             110         1090     37.84%           
                             120         1961     68.08%           
                             130          619     21.49%           
                             140         1134     39.37%           
                             150         1227     42.60%           
                             160         1097     38.08%           
                             170          616     21.39%           
                             180          604     20.97%           
                             190         2044     70.96%           
                             200            0      0.00%           
cpu.IFQ:qfull_rob_occ_dist_1.max_value            196                      
cpu.IFQ:qfull_rob_occ_dist_1.end_dist

cpu.IQ:cap_events                                   0                       # number of cycles where IQ cap was active
cpu.IQ:cap_events_0                                 0                       # number of cycles where IQ cap was active
cpu.IQ:cap_events_1                                 0                       # number of cycles where IQ cap was active
cpu.IQ:cap_inst                                     0                       # number of instructions held up by IQ cap
cpu.IQ:cap_inst_0                                   0                       # number of instructions held up by IQ cap
cpu.IQ:cap_inst_1                                   0                       # number of instructions held up by IQ cap
cpu.IQ:residence:(null).start_dist                             # cycles from dispatch to issue
cpu.IQ:residence:(null).samples                     0                      
cpu.IQ:residence:(null).min_value                   0                      
                               0            0                      
                               2            0                      
                               4            0                      
                               6            0                      
                               8            0                      
                              10            0                      
                              12            0                      
                              14            0                      
                              16            0                      
                              18            0                      
                              20            0                      
                              22            0                      
                              24            0                      
                              26            0                      
                              28            0                      
                              30            0                      
                              32            0                      
                              34            0                      
                              36            0                      
                              38            0                      
                              40            0                      
                              42            0                      
                              44            0                      
                              46            0                      
                              48            0                      
                              50            0                      
                              52            0                      
                              54            0                      
                              56            0                      
                              58            0                      
                              60            0                      
                              62            0                      
                              64            0                      
                              66            0                      
                              68            0                      
                              70            0                      
                              72            0                      
                              74            0                      
                              76            0                      
                              78            0                      
                              80            0                      
                              82            0                      
                              84            0                      
                              86            0                      
                              88            0                      
                              90            0                      
                              92            0                      
                              94            0                      
                              96            0                      
                              98            0                      
cpu.IQ:residence:(null).max_value                   0                      
cpu.IQ:residence:(null).end_dist

cpu.IQ:residence:IntAlu.start_dist                             # cycles from dispatch to issue
cpu.IQ:residence:IntAlu.samples               1001558                      
cpu.IQ:residence:IntAlu.min_value                   1                      
                               0       166789   1665.30%   1665.30%
                               2       118779   1185.94%   2851.24%
                               4        78354    782.32%   3633.56%
                               6        94871    947.23%   4580.79%
                               8        88627    884.89%   5465.68%
                              10        84106    839.75%   6305.44%
                              12        54951    548.66%   6854.09%
                              14        42813    427.46%   7281.56%
                              16        31941    318.91%   7600.47%
                              18        38156    380.97%   7981.43%
                              20        24984    249.45%   8230.89%
                              22        17406    173.79%   8404.68%
                              24        16634    166.08%   8570.76%
                              26        12926    129.06%   8699.82%
                              28        11936    119.17%   8818.99%
                              30         8759     87.45%   8906.44%
                              32        11340    113.22%   9019.67%
                              34        12174    121.55%   9141.22%
                              36         9347     93.32%   9234.54%
                              38         9641     96.26%   9330.80%
                              40        10128    101.12%   9431.93%
                              42         9074     90.60%   9522.52%
                              44         7630     76.18%   9598.71%
                              46         6463     64.53%   9663.23%
                              48         1692     16.89%   9680.13%
                              50          456      4.55%   9684.68%
                              52          383      3.82%   9688.51%
                              54           84      0.84%   9689.34%
                              56           96      0.96%   9690.30%
                              58           77      0.77%   9691.07%
                              60          100      1.00%   9692.07%
                              62          103      1.03%   9693.10%
                              64          127      1.27%   9694.37%
                              66          112      1.12%   9695.48%
                              68          109      1.09%   9696.57%
                              70           93      0.93%   9697.50%
                              72           86      0.86%   9698.36%
                              74           87      0.87%   9699.23%
                              76           86      0.86%   9700.09%
                              78          113      1.13%   9701.22%
                              80           83      0.83%   9702.04%
                              82          144      1.44%   9703.48%
                              84          197      1.97%   9705.45%
                              86          165      1.65%   9707.10%
                              88          158      1.58%   9708.67%
                              90          127      1.27%   9709.94%
                              92          190      1.90%   9711.84%
                              94          176      1.76%   9713.60%
                              96          221      2.21%   9715.80%
                              98          200      2.00%   9717.80%
cpu.IQ:residence:IntAlu.overflows               28264                      
cpu.IQ:residence:IntAlu.max_value                1109                      
cpu.IQ:residence:IntAlu.end_dist

cpu.IQ:residence:IntMult.start_dist                            # cycles from dispatch to issue
cpu.IQ:residence:IntMult.samples                  549                      
cpu.IQ:residence:IntMult.min_value                  1                      
                               0           87   1584.70%   1584.70%
                               2          104   1894.35%   3479.05%
                               4           55   1001.82%   4480.87%
                               6          129   2349.73%   6830.60%
                               8           70   1275.05%   8105.65%
                              10           44    801.46%   8907.10%
                              12           24    437.16%   9344.26%
                              14            7    127.50%   9471.77%
                              16            6    109.29%   9581.06%
                              18            2     36.43%   9617.49%
                              20            0      0.00%   9617.49%
                              22            2     36.43%   9653.92%
                              24            1     18.21%   9672.13%
                              26            1     18.21%   9690.35%
                              28            5     91.07%   9781.42%
                              30            1     18.21%   9799.64%
                              32            5     91.07%   9890.71%
                              34            5     91.07%   9981.79%
                              36            0      0.00%   9981.79%
                              38            0      0.00%   9981.79%
                              40            0      0.00%   9981.79%
                              42            0      0.00%   9981.79%
                              44            0      0.00%   9981.79%
                              46            0      0.00%   9981.79%
                              48            0      0.00%   9981.79%
                              50            0      0.00%   9981.79%
                              52            0      0.00%   9981.79%
                              54            0      0.00%   9981.79%
                              56            0      0.00%   9981.79%
                              58            0      0.00%   9981.79%
                              60            0      0.00%   9981.79%
                              62            0      0.00%   9981.79%
                              64            0      0.00%   9981.79%
                              66            0      0.00%   9981.79%
                              68            0      0.00%   9981.79%
                              70            0      0.00%   9981.79%
                              72            0      0.00%   9981.79%
                              74            0      0.00%   9981.79%
                              76            0      0.00%   9981.79%
                              78            0      0.00%   9981.79%
                              80            0      0.00%   9981.79%
                              82            0      0.00%   9981.79%
                              84            0      0.00%   9981.79%
                              86            0      0.00%   9981.79%
                              88            0      0.00%   9981.79%
                              90            0      0.00%   9981.79%
                              92            0      0.00%   9981.79%
                              94            0      0.00%   9981.79%
                              96            0      0.00%   9981.79%
                              98            0      0.00%   9981.79%
cpu.IQ:residence:IntMult.overflows                  1                      
cpu.IQ:residence:IntMult.max_value                111                      
cpu.IQ:residence:IntMult.end_dist

cpu.IQ:residence:IntDiv.start_dist                             # cycles from dispatch to issue
cpu.IQ:residence:IntDiv.samples                     0                      
cpu.IQ:residence:IntDiv.min_value                   0                      
                               0            0                      
                               2            0                      
                               4            0                      
                               6            0                      
                               8            0                      
                              10            0                      
                              12            0                      
                              14            0                      
                              16            0                      
                              18            0                      
                              20            0                      
                              22            0                      
                              24            0                      
                              26            0                      
                              28            0                      
                              30            0                      
                              32            0                      
                              34            0                      
                              36            0                      
                              38            0                      
                              40            0                      
                              42            0                      
                              44            0                      
                              46            0                      
                              48            0                      
                              50            0                      
                              52            0                      
                              54            0                      
                              56            0                      
                              58            0                      
                              60            0                      
                              62            0                      
                              64            0                      
                              66            0                      
                              68            0                      
                              70            0                      
                              72            0                      
                              74            0                      
                              76            0                      
                              78            0                      
                              80            0                      
                              82            0                      
                              84            0                      
                              86            0                      
                              88            0                      
                              90            0                      
                              92            0                      
                              94            0                      
                              96            0                      
                              98            0                      
cpu.IQ:residence:IntDiv.max_value                   0                      
cpu.IQ:residence:IntDiv.end_dist

cpu.IQ:residence:FloatAdd.start_dist                           # cycles from dispatch to issue
cpu.IQ:residence:FloatAdd.samples                  48                      
cpu.IQ:residence:FloatAdd.min_value                 2                      
                               0            0      0.00%      0.00%
                               2            7   1458.33%   1458.33%
                               4            5   1041.67%   2500.00%
                               6            1    208.33%   2708.33%
                               8            3    625.00%   3333.33%
                              10           10   2083.33%   5416.67%
                              12            8   1666.67%   7083.33%
                              14            5   1041.67%   8125.00%
                              16            1    208.33%   8333.33%
                              18            1    208.33%   8541.67%
                              20            0      0.00%   8541.67%
                              22            3    625.00%   9166.67%
                              24            0      0.00%   9166.67%
                              26            2    416.67%   9583.33%
                              28            2    416.67%  10000.00%
                              30            0      0.00%  10000.00%
                              32            0      0.00%  10000.00%
                              34            0      0.00%  10000.00%
                              36            0      0.00%  10000.00%
                              38            0      0.00%  10000.00%
                              40            0      0.00%  10000.00%
                              42            0      0.00%  10000.00%
                              44            0      0.00%  10000.00%
                              46            0      0.00%  10000.00%
                              48            0      0.00%  10000.00%
                              50            0      0.00%  10000.00%
                              52            0      0.00%  10000.00%
                              54            0      0.00%  10000.00%
                              56            0      0.00%  10000.00%
                              58            0      0.00%  10000.00%
                              60            0      0.00%  10000.00%
                              62            0      0.00%  10000.00%
                              64            0      0.00%  10000.00%
                              66            0      0.00%  10000.00%
                              68            0      0.00%  10000.00%
                              70            0      0.00%  10000.00%
                              72            0      0.00%  10000.00%
                              74            0      0.00%  10000.00%
                              76            0      0.00%  10000.00%
                              78            0      0.00%  10000.00%
                              80            0      0.00%  10000.00%
                              82            0      0.00%  10000.00%
                              84            0      0.00%  10000.00%
                              86            0      0.00%  10000.00%
                              88            0      0.00%  10000.00%
                              90            0      0.00%  10000.00%
                              92            0      0.00%  10000.00%
                              94            0      0.00%  10000.00%
                              96            0      0.00%  10000.00%
                              98            0      0.00%  10000.00%
cpu.IQ:residence:FloatAdd.max_value                29                      
cpu.IQ:residence:FloatAdd.end_dist

cpu.IQ:residence:FloatCmp.start_dist                           # cycles from dispatch to issue
cpu.IQ:residence:FloatCmp.samples                   0                      
cpu.IQ:residence:FloatCmp.min_value                 0                      
                               0            0                      
                               2            0                      
                               4            0                      
                               6            0                      
                               8            0                      
                              10            0                      
                              12            0                      
                              14            0                      
                              16            0                      
                              18            0                      
                              20            0                      
                              22            0                      
                              24            0                      
                              26            0                      
                              28            0                      
                              30            0                      
                              32            0                      
                              34            0                      
                              36            0                      
                              38            0                      
                              40            0                      
                              42            0                      
                              44            0                      
                              46            0                      
                              48            0                      
                              50            0                      
                              52            0                      
                              54            0                      
                              56            0                      
                              58            0                      
                              60            0                      
                              62            0                      
                              64            0                      
                              66            0                      
                              68            0                      
                              70            0                      
                              72            0                      
                              74            0                      
                              76            0                      
                              78            0                      
                              80            0                      
                              82            0                      
                              84            0                      
                              86            0                      
                              88            0                      
                              90            0                      
                              92            0                      
                              94            0                      
                              96            0                      
                              98            0                      
cpu.IQ:residence:FloatCmp.max_value                 0                      
cpu.IQ:residence:FloatCmp.end_dist

cpu.IQ:residence:FloatCvt.start_dist                           # cycles from dispatch to issue
cpu.IQ:residence:FloatCvt.samples                  61                      
cpu.IQ:residence:FloatCvt.min_value                 1                      
                               0           16   2622.95%   2622.95%
                               2            7   1147.54%   3770.49%
                               4            1    163.93%   3934.43%
                               6            3    491.80%   4426.23%
                               8            5    819.67%   5245.90%
                              10           11   1803.28%   7049.18%
                              12            9   1475.41%   8524.59%
                              14            0      0.00%   8524.59%
                              16            0      0.00%   8524.59%
                              18            1    163.93%   8688.52%
                              20            1    163.93%   8852.46%
                              22            1    163.93%   9016.39%
                              24            2    327.87%   9344.26%
                              26            0      0.00%   9344.26%
                              28            2    327.87%   9672.13%
                              30            2    327.87%  10000.00%
                              32            0      0.00%  10000.00%
                              34            0      0.00%  10000.00%
                              36            0      0.00%  10000.00%
                              38            0      0.00%  10000.00%
                              40            0      0.00%  10000.00%
                              42            0      0.00%  10000.00%
                              44            0      0.00%  10000.00%
                              46            0      0.00%  10000.00%
                              48            0      0.00%  10000.00%
                              50            0      0.00%  10000.00%
                              52            0      0.00%  10000.00%
                              54            0      0.00%  10000.00%
                              56            0      0.00%  10000.00%
                              58            0      0.00%  10000.00%
                              60            0      0.00%  10000.00%
                              62            0      0.00%  10000.00%
                              64            0      0.00%  10000.00%
                              66            0      0.00%  10000.00%
                              68            0      0.00%  10000.00%
                              70            0      0.00%  10000.00%
                              72            0      0.00%  10000.00%
                              74            0      0.00%  10000.00%
                              76            0      0.00%  10000.00%
                              78            0      0.00%  10000.00%
                              80            0      0.00%  10000.00%
                              82            0      0.00%  10000.00%
                              84            0      0.00%  10000.00%
                              86            0      0.00%  10000.00%
                              88            0      0.00%  10000.00%
                              90            0      0.00%  10000.00%
                              92            0      0.00%  10000.00%
                              94            0      0.00%  10000.00%
                              96            0      0.00%  10000.00%
                              98            0      0.00%  10000.00%
cpu.IQ:residence:FloatCvt.max_value                30                      
cpu.IQ:residence:FloatCvt.end_dist

cpu.IQ:residence:FloatMult.start_dist                          # cycles from dispatch to issue
cpu.IQ:residence:FloatMult.samples                  0                      
cpu.IQ:residence:FloatMult.min_value                0                      
                               0            0                      
                               2            0                      
                               4            0                      
                               6            0                      
                               8            0                      
                              10            0                      
                              12            0                      
                              14            0                      
                              16            0                      
                              18            0                      
                              20            0                      
                              22            0                      
                              24            0                      
                              26            0                      
                              28            0                      
                              30            0                      
                              32            0                      
                              34            0                      
                              36            0                      
                              38            0                      
                              40            0                      
                              42            0                      
                              44            0                      
                              46            0                      
                              48            0                      
                              50            0                      
                              52            0                      
                              54            0                      
                              56            0                      
                              58            0                      
                              60            0                      
                              62            0                      
                              64            0                      
                              66            0                      
                              68            0                      
                              70            0                      
                              72            0                      
                              74            0                      
                              76            0                      
                              78            0                      
                              80            0                      
                              82            0                      
                              84            0                      
                              86            0                      
                              88            0                      
                              90            0                      
                              92            0                      
                              94            0                      
                              96            0                      
                              98            0                      
cpu.IQ:residence:FloatMult.max_value                0                      
cpu.IQ:residence:FloatMult.end_dist

cpu.IQ:residence:FloatDiv.start_dist                           # cycles from dispatch to issue
cpu.IQ:residence:FloatDiv.samples                  10                      
cpu.IQ:residence:FloatDiv.min_value                 5                      
                               0            0      0.00%      0.00%
                               2            0      0.00%      0.00%
                               4            1   1000.00%   1000.00%
                               6            1   1000.00%   2000.00%
                               8            0      0.00%   2000.00%
                              10            2   2000.00%   4000.00%
                              12            1   1000.00%   5000.00%
                              14            2   2000.00%   7000.00%
                              16            3   3000.00%  10000.00%
                              18            0      0.00%  10000.00%
                              20            0      0.00%  10000.00%
                              22            0      0.00%  10000.00%
                              24            0      0.00%  10000.00%
                              26            0      0.00%  10000.00%
                              28            0      0.00%  10000.00%
                              30            0      0.00%  10000.00%
                              32            0      0.00%  10000.00%
                              34            0      0.00%  10000.00%
                              36            0      0.00%  10000.00%
                              38            0      0.00%  10000.00%
                              40            0      0.00%  10000.00%
                              42            0      0.00%  10000.00%
                              44            0      0.00%  10000.00%
                              46            0      0.00%  10000.00%
                              48            0      0.00%  10000.00%
                              50            0      0.00%  10000.00%
                              52            0      0.00%  10000.00%
                              54            0      0.00%  10000.00%
                              56            0      0.00%  10000.00%
                              58            0      0.00%  10000.00%
                              60            0      0.00%  10000.00%
                              62            0      0.00%  10000.00%
                              64            0      0.00%  10000.00%
                              66            0      0.00%  10000.00%
                              68            0      0.00%  10000.00%
                              70            0      0.00%  10000.00%
                              72            0      0.00%  10000.00%
                              74            0      0.00%  10000.00%
                              76            0      0.00%  10000.00%
                              78            0      0.00%  10000.00%
                              80            0      0.00%  10000.00%
                              82            0      0.00%  10000.00%
                              84            0      0.00%  10000.00%
                              86            0      0.00%  10000.00%
                              88            0      0.00%  10000.00%
                              90            0      0.00%  10000.00%
                              92            0      0.00%  10000.00%
                              94            0      0.00%  10000.00%
                              96            0      0.00%  10000.00%
                              98            0      0.00%  10000.00%
cpu.IQ:residence:FloatDiv.max_value                17                      
cpu.IQ:residence:FloatDiv.end_dist

cpu.IQ:residence:FloatSqrt.start_dist                          # cycles from dispatch to issue
cpu.IQ:residence:FloatSqrt.samples                  0                      
cpu.IQ:residence:FloatSqrt.min_value                0                      
                               0            0                      
                               2            0                      
                               4            0                      
                               6            0                      
                               8            0                      
                              10            0                      
                              12            0                      
                              14            0                      
                              16            0                      
                              18            0                      
                              20            0                      
                              22            0                      
                              24            0                      
                              26            0                      
                              28            0                      
                              30            0                      
                              32            0                      
                              34            0                      
                              36            0                      
                              38            0                      
                              40            0                      
                              42            0                      
                              44            0                      
                              46            0                      
                              48            0                      
                              50            0                      
                              52            0                      
                              54            0                      
                              56            0                      
                              58            0                      
                              60            0                      
                              62            0                      
                              64            0                      
                              66            0                      
                              68            0                      
                              70            0                      
                              72            0                      
                              74            0                      
                              76            0                      
                              78            0                      
                              80            0                      
                              82            0                      
                              84            0                      
                              86            0                      
                              88            0                      
                              90            0                      
                              92            0                      
                              94            0                      
                              96            0                      
                              98            0                      
cpu.IQ:residence:FloatSqrt.max_value                0                      
cpu.IQ:residence:FloatSqrt.end_dist

cpu.IQ:residence:MemRead.start_dist                            # cycles from dispatch to issue
cpu.IQ:residence:MemRead.samples               958894                      
cpu.IQ:residence:MemRead.min_value                  1                      
                               0       118316   1233.88%   1233.88%
                               2       186531   1945.27%   3179.15%
                               4        98585   1028.11%   4207.26%
                               6       117356   1223.87%   5431.13%
                               8       100674   1049.90%   6481.03%
                              10        79951    833.78%   7314.81%
                              12        44847    467.70%   7782.51%
                              14        41040    427.99%   8210.50%
                              16        19818    206.68%   8417.18%
                              18        14138    147.44%   8564.62%
                              20        16716    174.33%   8738.94%
                              22        12756    133.03%   8871.97%
                              24         9285     96.83%   8968.80%
                              26         7475     77.95%   9046.76%
                              28        11311    117.96%   9164.71%
                              30         8481     88.45%   9253.16%
                              32         8729     91.03%   9344.19%
                              34        13897    144.93%   9489.12%
                              36         9072     94.61%   9583.73%
                              38         5061     52.78%   9636.51%
                              40         4335     45.21%   9681.72%
                              42         4680     48.81%   9730.52%
                              44         2182     22.76%   9753.28%
                              46         1168     12.18%   9765.46%
                              48         1124     11.72%   9777.18%
                              50          282      2.94%   9780.12%
                              52          103      1.07%   9781.20%
                              54           74      0.77%   9781.97%
                              56           69      0.72%   9782.69%
                              58           67      0.70%   9783.39%
                              60           67      0.70%   9784.08%
                              62           82      0.86%   9784.94%
                              64          114      1.19%   9786.13%
                              66           95      0.99%   9787.12%
                              68           94      0.98%   9788.10%
                              70           60      0.63%   9788.73%
                              72           77      0.80%   9789.53%
                              74           92      0.96%   9790.49%
                              76           89      0.93%   9791.42%
                              78           97      1.01%   9792.43%
                              80           85      0.89%   9793.31%
                              82          127      1.32%   9794.64%
                              84          150      1.56%   9796.20%
                              86          147      1.53%   9797.74%
                              88          124      1.29%   9799.03%
                              90          105      1.10%   9800.12%
                              92          136      1.42%   9801.54%
                              94          113      1.18%   9802.72%
                              96          144      1.50%   9804.22%
                              98          117      1.22%   9805.44%
cpu.IQ:residence:MemRead.overflows              18656                      
cpu.IQ:residence:MemRead.max_value                974                      
cpu.IQ:residence:MemRead.end_dist

cpu.IQ:residence:MemWrite.start_dist                           # cycles from dispatch to issue
cpu.IQ:residence:MemWrite.samples              354556                      
cpu.IQ:residence:MemWrite.min_value                 1                      
                               0        49281   1389.94%   1389.94%
                               2       100881   2845.28%   4235.21%
                               4        48765   1375.38%   5610.59%
                               6        36501   1029.48%   6640.08%
                               8        29234    824.52%   7464.60%
                              10        23067    650.59%   8115.19%
                              12        14826    418.16%   8533.35%
                              14         9242    260.66%   8794.01%
                              16         6699    188.94%   8982.95%
                              18         9312    262.64%   9245.59%
                              20         3790    106.89%   9352.49%
                              22         2065     58.24%   9410.73%
                              24         4450    125.51%   9536.24%
                              26         1980     55.84%   9592.08%
                              28         1136     32.04%   9624.12%
                              30         1844     52.01%   9676.13%
                              32         2176     61.37%   9737.50%
                              34         1067     30.09%   9767.60%
                              36          874     24.65%   9792.25%
                              38          431     12.16%   9804.40%
                              40          566     15.96%   9820.37%
                              42         1394     39.32%   9859.68%
                              44          721     20.34%   9880.02%
                              46          362     10.21%   9890.23%
                              48          327      9.22%   9899.45%
                              50           79      2.23%   9901.68%
                              52          193      5.44%   9907.12%
                              54          118      3.33%   9910.45%
                              56           22      0.62%   9911.07%
                              58           16      0.45%   9911.52%
                              60           22      0.62%   9912.14%
                              62           15      0.42%   9912.57%
                              64           12      0.34%   9912.91%
                              66           10      0.28%   9913.19%
                              68           16      0.45%   9913.64%
                              70           30      0.85%   9914.48%
                              72           18      0.51%   9914.99%
                              74           28      0.79%   9915.78%
                              76           21      0.59%   9916.37%
                              78           40      1.13%   9917.50%
                              80           44      1.24%   9918.74%
                              82           20      0.56%   9919.31%
                              84           13      0.37%   9919.67%
                              86           25      0.71%   9920.38%
                              88           20      0.56%   9920.94%
                              90           18      0.51%   9921.45%
                              92           15      0.42%   9921.87%
                              94           28      0.79%   9922.66%
                              96           19      0.54%   9923.20%
                              98           29      0.82%   9924.02%
cpu.IQ:residence:MemWrite.overflows              2694                      
cpu.IQ:residence:MemWrite.max_value               763                      
cpu.IQ:residence:MemWrite.end_dist

cpu.IQ:residence:IprAccess.start_dist                          # cycles from dispatch to issue
cpu.IQ:residence:IprAccess.samples                  0                      
cpu.IQ:residence:IprAccess.min_value                0                      
                               0            0                      
                               2            0                      
                               4            0                      
                               6            0                      
                               8            0                      
                              10            0                      
                              12            0                      
                              14            0                      
                              16            0                      
                              18            0                      
                              20            0                      
                              22            0                      
                              24            0                      
                              26            0                      
                              28            0                      
                              30            0                      
                              32            0                      
                              34            0                      
                              36            0                      
                              38            0                      
                              40            0                      
                              42            0                      
                              44            0                      
                              46            0                      
                              48            0                      
                              50            0                      
                              52            0                      
                              54            0                      
                              56            0                      
                              58            0                      
                              60            0                      
                              62            0                      
                              64            0                      
                              66            0                      
                              68            0                      
                              70            0                      
                              72            0                      
                              74            0                      
                              76            0                      
                              78            0                      
                              80            0                      
                              82            0                      
                              84            0                      
                              86            0                      
                              88            0                      
                              90            0                      
                              92            0                      
                              94            0                      
                              96            0                      
                              98            0                      
cpu.IQ:residence:IprAccess.max_value                0                      
cpu.IQ:residence:IprAccess.end_dist

cpu.IQ:residence:InstPrefetch.start_dist                       # cycles from dispatch to issue
cpu.IQ:residence:InstPrefetch.samples               0                      
cpu.IQ:residence:InstPrefetch.min_value             0                      
                               0            0                      
                               2            0                      
                               4            0                      
                               6            0                      
                               8            0                      
                              10            0                      
                              12            0                      
                              14            0                      
                              16            0                      
                              18            0                      
                              20            0                      
                              22            0                      
                              24            0                      
                              26            0                      
                              28            0                      
                              30            0                      
                              32            0                      
                              34            0                      
                              36            0                      
                              38            0                      
                              40            0                      
                              42            0                      
                              44            0                      
                              46            0                      
                              48            0                      
                              50            0                      
                              52            0                      
                              54            0                      
                              56            0                      
                              58            0                      
                              60            0                      
                              62            0                      
                              64            0                      
                              66            0                      
                              68            0                      
                              70            0                      
                              72            0                      
                              74            0                      
                              76            0                      
                              78            0                      
                              80            0                      
[...]
cpu.l2.overall_misses                            5061                       # number of overall misses
cpu.l2.overall_misses_0                           910                       # number of overall misses
cpu.l2.overall_misses_1                          4151                       # number of overall misses
cpu.l2.overall_mshr_hits                            0                       # number of overall MSHR hits
cpu.l2.overall_mshr_hits_0                          0                       # number of overall MSHR hits
cpu.l2.overall_mshr_hits_1                          0                       # number of overall MSHR hits
cpu.l2.overall_mshr_miss_latency               577044                       # number of overall MSHR miss cycles
cpu.l2.overall_mshr_miss_latency_0             104305                       # number of overall MSHR miss cycles
cpu.l2.overall_mshr_miss_latency_1             472739                       # number of overall MSHR miss cycles
cpu.l2.overall_mshr_miss_rate                0.346357                       # mshr miss rate for overall accesses
cpu.l2.overall_mshr_miss_rate_0              0.579618                       # mshr miss rate for overall accesses
cpu.l2.overall_mshr_miss_rate_1              0.318171                       # mshr miss rate for overall accesses
cpu.l2.overall_mshr_misses                       5044                       # number of overall MSHR misses
cpu.l2.overall_mshr_misses_0                      910                       # number of overall MSHR misses
cpu.l2.overall_mshr_misses_1                     4134                       # number of overall MSHR misses
cpu.l2.overall_mshr_uncacheable_latency             0                       # number of overall MSHR uncacheable cycles
cpu.l2.overall_mshr_uncacheable_latency_0            0                       # number of overall MSHR uncacheable cycles
cpu.l2.overall_mshr_uncacheable_latency_1            0                       # number of overall MSHR uncacheable cycles
cpu.l2.overall_mshr_uncacheable_misses              0                       # number of overall MSHR uncacheable misses
cpu.l2.overall_mshr_uncacheable_misses_0            0                       # number of overall MSHR uncacheable misses
cpu.l2.overall_mshr_uncacheable_misses_1            0                       # number of overall MSHR uncacheable misses
cpu.l2.prefetcher.num_hwpf_already_in_cache            0                       # number of hwpf that were already in the cache
cpu.l2.prefetcher.num_hwpf_already_in_mshr            0                       # number of hwpf that were already in mshr
cpu.l2.prefetcher.num_hwpf_already_in_prefetcher            0                       # number of hwpf that were already in the prefetch queue
cpu.l2.prefetcher.num_hwpf_evicted                  0                       # number of hwpf removed due to no buffer left
cpu.l2.prefetcher.num_hwpf_identified               0                       # number of hwpf identified
cpu.l2.prefetcher.num_hwpf_issued                   0                       # number of hwpf issued
cpu.l2.prefetcher.num_hwpf_removed_MSHR_hit            0                       # number of hwpf removed because MSHR allocated
cpu.l2.prefetcher.num_hwpf_span_page                0                       # number of hwpf spanning a virtual page
cpu.l2.prefetcher.num_hwpf_squashed_from_miss            0                       # number of hwpf that got squashed due to a miss aborting calculation time
cpu.l2.read_accesses                            14252                       # number of read accesses(hits+misses)
cpu.l2.read_accesses_0                           1515                       # number of read accesses(hits+misses)
cpu.l2.read_accesses_1                          12737                       # number of read accesses(hits+misses)
cpu.l2.read_avg_miss_latency               128.530531                       # average read miss latency
cpu.l2.read_avg_miss_latency_0             129.313187                       # average read miss latency
cpu.l2.read_avg_miss_latency_1             128.358249                       # average read miss latency
cpu.l2.read_avg_mshr_miss_latency          114.402062                       # average read mshr miss latency
cpu.l2.read_avg_mshr_miss_latency_0        114.620879                       # average read mshr miss latency
cpu.l2.read_avg_mshr_miss_latency_1        114.353895                       # average read mshr miss latency
cpu.l2.read_hits                                 9208                       # number of read hits
cpu.l2.read_hits_0                                605                       # number of read hits
cpu.l2.read_hits_1                               8603                       # number of read hits
cpu.l2.read_miss_latency                       648308                       # number of read miss cycles
cpu.l2.read_miss_latency_0                     117675                       # number of read miss cycles
cpu.l2.read_miss_latency_1                     530633                       # number of read miss cycles
cpu.l2.read_miss_rate                        0.353915                       # miss rate for read accesses
cpu.l2.read_miss_rate_0                      0.600660                       # miss rate for read accesses
cpu.l2.read_miss_rate_1                      0.324566                       # miss rate for read accesses
cpu.l2.read_misses                               5044                       # number of read misses
cpu.l2.read_misses_0                              910                       # number of read misses
cpu.l2.read_misses_1                             4134                       # number of read misses
cpu.l2.read_mshr_miss_latency                  577044                       # number of read MSHR miss cycles
cpu.l2.read_mshr_miss_latency_0                104305                       # number of read MSHR miss cycles
cpu.l2.read_mshr_miss_latency_1                472739                       # number of read MSHR miss cycles
cpu.l2.read_mshr_miss_rate                   0.353915                       # mshr miss rate for read accesses
cpu.l2.read_mshr_miss_rate_0                 0.600660                       # mshr miss rate for read accesses
cpu.l2.read_mshr_miss_rate_1                 0.324566                       # mshr miss rate for read accesses
cpu.l2.read_mshr_misses                          5044                       # number of read MSHR misses
cpu.l2.read_mshr_misses_0                         910                       # number of read MSHR misses
cpu.l2.read_mshr_misses_1                        4134                       # number of read MSHR misses
cpu.l2.replacements                                 0                       # number of replacements
cpu.l2.replacements_0                               0                       # number of replacements
cpu.l2.replacements_1                               0                       # number of replacements
cpu.l2.sampled_refs                                 0                       # Sample count of references to valid blocks.
cpu.l2.soft_prefetch_mshr_full                      0                       # number of mshr full events for SW prefetching instrutions
cpu.l2.soft_prefetch_mshr_full_0                    0                       # number of mshr full events for SW prefetching instrutions
cpu.l2.soft_prefetch_mshr_full_1                    0                       # number of mshr full events for SW prefetching instrutions
cpu.l2.tagsinuse                          3100.333191                       # Cycle average of tags in use
cpu.l2.total_refs                                   0                       # Total number of references to valid blocks.
cpu.l2.warmup_cycle                                 0                       # Cycle when the warmup percentage was hit.
cpu.l2.writeback_accesses                         311                       # number of writeback accesses(hits+misses)
cpu.l2.writeback_accesses_0                        55                       # number of writeback accesses(hits+misses)
cpu.l2.writeback_accesses_1                       256                       # number of writeback accesses(hits+misses)
cpu.l2.writeback_hits                             294                       # number of writeback hits
cpu.l2.writeback_hits_0                            55                       # number of writeback hits
cpu.l2.writeback_hits_1                           239                       # number of writeback hits
cpu.l2.writeback_miss_rate                   0.054662                       # miss rate for writeback accesses
cpu.l2.writeback_miss_rate_1                 0.066406                       # miss rate for writeback accesses
cpu.l2.writeback_misses                            17                       # number of writeback misses
cpu.l2.writeback_misses_1                          17                       # number of writeback misses
cpu.l2.writeback_mshr_miss_rate              0.054662                       # mshr miss rate for writeback accesses
cpu.l2.writeback_mshr_miss_rate_1            0.066406                       # mshr miss rate for writeback accesses
cpu.l2.writeback_mshr_misses                       17                       # number of writeback MSHR misses
cpu.l2.writeback_mshr_misses_1                     17                       # number of writeback MSHR misses
cpu.l2.writebacks                                   0                       # number of writebacks
cpu.l2.writebacks_0                                 0                       # number of writebacks
cpu.l2.writebacks_1                                 0                       # number of writebacks
cpu.numCycles                                  615125                       # number of cpu cycles simulated
cpu.toL2Bus.addr_idle_cycles                   600491                       # number of cycles bus was idle
cpu.toL2Bus.addr_idle_fraction               0.976211                       # fraction of time addr bus was idle
cpu.toL2Bus.addr_queued                      3.584426                       # average queueing delay seen by bus request
cpu.toL2Bus.addr_queued_0                    4.066242                       # average queueing delay seen by bus request
cpu.toL2Bus.addr_queued_1                    3.526206                       # average queueing delay seen by bus request
cpu.toL2Bus.addr_queued_cycles                  52200                       # total number of queued cycles for all requests
cpu.toL2Bus.addr_queued_cycles_0                 6384                       # total number of queued cycles for all requests
cpu.toL2Bus.addr_queued_cycles_1                45816                       # total number of queued cycles for all requests
cpu.toL2Bus.addr_requests                       14563                       # number of transmissions on bus
cpu.toL2Bus.addr_requests_0                      1570                       # number of transmissions on bus
cpu.toL2Bus.addr_requests_1                     12993                       # number of transmissions on bus
cpu.toL2Bus.bus_blocked                             0                       # number of times bus was blocked
cpu.toL2Bus.bus_blocked_cycles                      0                       # number of cycles bus was blocked
cpu.toL2Bus.bus_blocked_fraction                    0                       # fraction of time bus was blocked
cpu.toL2Bus.data_idle_cycles                   600502                       # number of cycles bus was idle
cpu.toL2Bus.data_idle_fraction               0.976229                       # fraction of time data bus was idle
cpu.toL2Bus.data_queued                      1.005473                       # average queueing delay seen by bus request
cpu.toL2Bus.data_queued_0                    1.003960                       # average queueing delay seen by bus request
cpu.toL2Bus.data_queued_1                    1.005653                       # average queueing delay seen by bus request
cpu.toL2Bus.data_queued_cycles                  14330                       # total number of queued cycles for all requests
cpu.toL2Bus.data_queued_cycles_0                 1521                       # total number of queued cycles for all requests
cpu.toL2Bus.data_queued_cycles_1                12809                       # total number of queued cycles for all requests
cpu.toL2Bus.data_requests                       14252                       # number of transmissions on bus
cpu.toL2Bus.data_requests_0                      1515                       # number of transmissions on bus
cpu.toL2Bus.data_requests_1                     12737                       # number of transmissions on bus
cpu.toL2Bus.null_grants                           578                       # number of null grants (wasted cycles)
cpu.workload0.MainMem.page_count                    0                       # total number of pages allocated
cpu.workload0.MainMem.page_mem                      0                       # total size of memory pages allocated
cpu.workload0.MainMem.ptab_accesses           2900766                       # total page table accessess
cpu.workload0.MainMem.ptab_miss_rate           0.0096                       # first level page table miss rate
cpu.workload0.MainMem.ptab_misses               27990                       # total first level page table misses
cpu.workload0.PROG:num_syscalls                   639                       # Number of system calls
cpu.workload1.MainMem.page_count                    1                       # total number of pages allocated
cpu.workload1.MainMem.page_mem                      8                       # total size of memory pages allocated
cpu.workload1.MainMem.ptab_accesses           1334149                       # total page table accessess
cpu.workload1.MainMem.ptab_miss_rate           0.0105                       # first level page table miss rate
cpu.workload1.MainMem.ptab_misses               13988                       # total first level page table misses
cpu.workload1.PROG:num_syscalls                    79                       # Number of system calls
cpuinst_class_dist.start_dist
                   All ops ready            0      0.00%            # Operand status at dispatch
                One op not ready            0      0.00%            # Operand status at dispatch
           None rdy, mult chains            0      0.00%            # Operand status at dispatch
           None rdy, one chained            0      0.00%            # Operand status at dispatch
        None rdy, all self-timed            0      0.00%            # Operand status at dispatch
cpuinst_class_dist.end_dist
host_inst_rate                                  63795                       # Simulator instruction rate (inst/s)
host_mem_usage                                  18968                       # Number of bytes of host memory used
host_seconds                                    20.78                       # Real time elapsed on the host
host_tick_rate                                  29601                       # Simulator tick rate (ticks/s)
ram.accesses                                     5061                       # total number of accesses
ram.accesses_0                                    910                       # total number of accesses
ram.accesses_1                                   4151                       # total number of accesses
ram.bytes_requested                                 0                       # total number of bytes requested
ram.bytes_requested_0                               0                       # total number of bytes requested
ram.bytes_requested_1                               0                       # total number of bytes requested
ram.bytes_sent                                      0                       # total number of bytes sent
ram.bytes_sent_0                                    0                       # total number of bytes sent
ram.bytes_sent_1                                    0                       # total number of bytes sent
ram.compressed_responses                            0                       # total number of accesses that are compressed
ram.compressed_responses_0                          0                       # total number of accesses that are compressed
ram.compressed_responses_1                          0                       # total number of accesses that are compressed
sim_freq                                    200000000                       # Frequency of simulated ticks
sim_insts                                     1325646                       # Number of instructions simulated
sim_seconds                                  0.003076                       # Number of seconds simulated
sim_ticks                                      615124                       # Number of ticks simulated
toMemBus.addr_idle_cycles                      609788                       # number of cycles bus was idle
toMemBus.addr_idle_fraction                  0.991325                       # fraction of time addr bus was idle
toMemBus.addr_queued                        11.653231                       # average queueing delay seen by bus request
toMemBus.addr_queued_0                      11.398901                       # average queueing delay seen by bus request
toMemBus.addr_queued_1                      11.708986                       # average queueing delay seen by bus request
toMemBus.addr_queued_cycles                     58977                       # total number of queued cycles for all requests
toMemBus.addr_queued_cycles_0                   10373                       # total number of queued cycles for all requests
toMemBus.addr_queued_cycles_1                   48604                       # total number of queued cycles for all requests
toMemBus.addr_requests                           5061                       # number of transmissions on bus
toMemBus.addr_requests_0                          910                       # number of transmissions on bus
toMemBus.addr_requests_1                         4151                       # number of transmissions on bus
toMemBus.bus_blocked                                0                       # number of times bus was blocked
toMemBus.bus_blocked_cycles                         0                       # number of cycles bus was blocked
toMemBus.bus_blocked_fraction                       0                       # fraction of time bus was blocked
toMemBus.data_idle_cycles                      594709                       # number of cycles bus was idle
toMemBus.data_idle_fraction                  0.966812                       # fraction of time data bus was idle
toMemBus.data_queued                         1.749603                       # average queueing delay seen by bus request
toMemBus.data_queued_0                       2.221978                       # average queueing delay seen by bus request
toMemBus.data_queued_1                       1.645622                       # average queueing delay seen by bus request
toMemBus.data_queued_cycles                      8825                       # total number of queued cycles for all requests
toMemBus.data_queued_cycles_0                    2022                       # total number of queued cycles for all requests
toMemBus.data_queued_cycles_1                    6803                       # total number of queued cycles for all requests
toMemBus.data_requests                           5044                       # number of transmissions on bus
toMemBus.data_requests_0                          910                       # number of transmissions on bus
toMemBus.data_requests_1                         4134                       # number of transmissions on bus
toMemBus.null_grants                                0                       # number of null grants (wasted cycles)

---------- End Simulation Statistics   ----------
