
---------- Begin Simulation Statistics ----------
cpu.COM:IPB                                  5.995989                       # Committed instructions per branch
cpu.COM:IPC                                  1.326958                       # Committed instructions per cycle
cpu.COM:branches                               166779                       # Number of branches committed
cpu.COM:bw_lim_avg                       <err: div-0>                       # Avg number not committed in cycles BW limited
cpu.COM:bw_lim_events                               0                       # number cycles where commit BW limit reached
cpu.COM:bw_lim_rate                            0.0000                       # Average number not committed due to BW (over all cycles)
cpu.COM:bw_lim_stdev_0_mean              <err: div-0>                       # standard deviation of bw_lim_avg value
cpu.COM:bw_lim_stdev_0_stdev             <err: div-0>                       # standard deviation of bw_lim_avg value
**Ignore: cpu.COM:bw_lim_stdev_0_TOT           0.0000                       # standard deviation of bw_lim_avg value
cpu.COM:bw_limited                                  0                       # number of insts not committed due to BW limits
cpu.COM:committed_per_cycle.start_dist                         # Number of insts commited each cycle
cpu.COM:committed_per_cycle.samples            228963                      
cpu.COM:committed_per_cycle.min_value               0                      
                               0         3902    170.42%           
                               1        65198   2847.53%           
                               2        28461   1243.04%           
                               3        14358    627.09%           
                               4        13500    589.61%           
                               5         7355    321.23%           
                               6         6159    269.00%           
                               7         7906    345.30%           
                               8        82124   3586.78%           
cpu.COM:committed_per_cycle.max_value               8                      
cpu.COM:committed_per_cycle.end_dist

cpu.COM:count                                 1000005                       # Number of instructions committed
cpu.COM:loads                                  214875                       # Number of loads committed
cpu.COM:membars                                     0                       # Number of memory barriers committed
cpu.COM:refs                                   365873                       # Number of memory references committed
cpu.COM:stores                                 150998                       # Number of stores committed
cpu.COM:swp_count                                5252                       # Number of s/w prefetches committed
cpu.DDQ:count                                57332887                       # cum count of instructions
cpu.DDQ:rate                                       76                       # average number of instructions
cpu.DIS:chain_creation.start_dist
     Inst has no outstanding IDEPS            0      0.00%            # Reason that chain head was created
      IDEP chain reached max depth            0      0.00%            # Reason that chain head was created
                    Inst is a load            0      0.00%            # Reason that chain head was created
  Chain has multiple chained IDEPS            0      0.00%            # Reason that chain head was created
cpu.DIS:chain_creation.end_dist
cpu.DIS:chain_head_frac                             0                       # fraction of insts that are chain heads
cpu.DIS:chain_heads                                 0                       # number insts that are chain heads
cpu.DIS:chains_insuf                                0                       # number of times thread had insuf chains
cpu.DIS:chains_insuf_rate                           0                       # rate that thread had insuf chains
cpu.DIS:count                                 1775191                       # cumulative count of dispatched insts
cpu.DIS:insufficient_chains                         0                       # Number of instances where dispatch stopped
cpu.DIS:mod_n_stall_avg_free                 no value                       # avg free slots per cycle
cpu.DIS:mod_n_stall_frac                            0                       # avg stalls per cycle
cpu.DIS:mod_n_stall_free                            0                       # free slots when dispatch stalled due to mod-n
cpu.DIS:mod_n_stalls                                0                       # cycles where dispatch stalled due to mod-n
cpu.DIS:one_rdy_insts                               0                       # number of 2-op insts w/ one rdy op
cpu.DIS:one_rdy_ratio                        no value                       # fraction of 2-op insts w/ one ready op
cpu.DIS:op_count                              2400027                       # number of operations dispatched
cpu.DIS:op_rate                              3.184720                       # dispatched operations per cycle
cpu.DIS:rate                                 2.355593                       # dispatched_insts per cycle
cpu.DIS:second_choice_clust                         0                       # Number of instructions dispatched to second-choice cluster
cpu.DIS:second_choice_stall                         0                       # Number of instructions stalled when first choice not available
cpu.DIS:serialize_stall_cycles                      0                       # count of cycles dispatch stalled for serializing inst
cpu.DIS:serializing_insts                           0                       # count of serializing insts dispatched
cpu.DIS:two_input_insts                             0                       # Number of two input instructions queued
cpu.DIS:two_input_ratio                             0                       # fraction of all insts having 2 inputs
cpu.FETCH:branch_count                         415899                       # Number of branches fetched
cpu.FETCH:branch_rate                        0.551878                       # Number of branch fetches per cycle
cpu.FETCH:chance_pct                                1                       # Percentage of all fetch chances
cpu.FETCH:chances                              427547                       # Number of fetch opportunities
cpu.FETCH:choice                               427547                       # Number of times we fetched from our first choice
cpu.FETCH:count                               3165141                       # Number of instructions fetched
cpu.FETCH:decisions                            427547                       # number of times the fetch stage chose between threads
cpu.FETCH:idle_cycles                          326060                       # number of cycles where fetch stage was idle
cpu.FETCH:idle_icache_blocked_cycles                0                       # number of cycles where fetch was idle due to icache blocked
cpu.FETCH:idle_rate                             43.27                       # percent of cycles fetch stage was idle
cpu.FETCH:prio_changes                              0                       # Number of times priorities were changed
cpu.FETCH:rate                               4.199989                       # Number of inst fetches per cycle
cpu.FETCH:rate_dist.start_dist                                 # Number of instructions fetched each cycle (Total)
cpu.FETCH:rate_dist.samples                    427547                      
cpu.FETCH:rate_dist.min_value                       0                      
                               0          491     11.48%           
                               1         5524    129.20%           
                               2         5246    122.70%           
                               3         6767    158.27%           
                               4        10680    249.80%           
                               5        10528    246.24%           
                               6        30467    712.60%           
                               7        12090    282.78%           
                               8       345754   8086.92%           
cpu.FETCH:rate_dist.max_value                       8                      
cpu.FETCH:rate_dist.end_dist

cpu.FETCH:rate_dist_0.start_dist                               # Number of instructions fetched each cycle (Thread 0)
cpu.FETCH:rate_dist_0.samples                  427547                      
cpu.FETCH:rate_dist_0.min_value                     0                      
                               0          491     11.48%           
                               1         5524    129.20%           
                               2         5246    122.70%           
                               3         6767    158.27%           
                               4        10680    249.80%           
                               5        10528    246.24%           
                               6        30467    712.60%           
                               7        12090    282.78%           
                               8       345754   8086.92%           
cpu.FETCH:rate_dist_0.max_value                     8                      
cpu.FETCH:rate_dist_0.end_dist

cpu.IFQ:count                                 9826575                       # cumulative IFQ occupancy
cpu.IFQ:full_count                             168938                       # cumulative IFQ full count
cpu.IFQ:full_rate                           22.417255                       # fraction of time (cycle's) IFQ was full
cpu.IFQ:latency                              5.535503                       # avg IFQ occupant latency (cycle's)
cpu.IFQ:occupancy                           13.039389                       # avg IFQ occupancy (inst's)
cpu.IFQ:qfull_iq_occ                          2907564                       # Number of insts in IQ when fetch-queue full
cpu.IFQ:qfull_iq_occ_dist_0.start_dist                         # Number of insts in IQ when fetch-queue full
cpu.IFQ:qfull_iq_occ_dist_0.samples             73160                      
cpu.IFQ:qfull_iq_occ_dist_0.min_value               0                      
                               0         7416   1013.67%           
                              10         4171    570.12%           
                              20        11067   1512.71%           
                              30         9312   1272.83%           
                              40        19117   2613.04%           
                              50         6958    951.07%           
                              60        15119   2066.57%           
cpu.IFQ:qfull_iq_occ_dist_0.max_value              64                      
cpu.IFQ:qfull_iq_occ_dist_0.end_dist

cpu.IFQ:qfull_rob_occ                        10629742                       # Number of insts in ROB when fetch-queue full
cpu.IFQ:qfull_rob_occ_dist_0.start_dist                        # Number of insts in ROB when fetch-queue full
cpu.IFQ:qfull_rob_occ_dist_0.samples            73160                      
cpu.IFQ:qfull_rob_occ_dist_0.min_value             47                      
                               0            0      0.00%           
                              10            0      0.00%           
                              20            0      0.00%           
                              30            0      0.00%           
                              40          125     17.09%           
                              50          494     67.52%           
                              60         1457    199.15%           
                              70         6971    952.84%           
                              80         3671    501.78%           
                              90         4480    612.36%           
                             100         3855    526.93%           
                             110         4738    647.62%           
                             120         6676    912.52%           
                             130         4921    672.64%           
                             140         1637    223.76%           
                             150         1375    187.94%           
                             160          869    118.78%           
                             170         1137    155.41%           
                             180          406     55.49%           
                             190        30348   4148.17%           
                             200            0      0.00%           
cpu.IFQ:qfull_rob_occ_dist_0.max_value            196                      
cpu.IFQ:qfull_rob_occ_dist_0.end_dist

cpu.IQ:cap_events                                   0                       # number of cycles where IQ cap was active
cpu.IQ:cap_inst                                     0                       # number of instructions held up by IQ cap
cpu.IQ:residence:(null).start_dist                             # cycles from dispatch to issue
cpu.IQ:residence:(null).samples                     0                      
cpu.IQ:residence:(null).min_value                   0                      
                               0            0                      
                               2            0                      
                               4            0                      
                               6            0                      
                               8            0                      
                              10            0                      
                              12            0                      
                              14            0                      
                              16            0                      
                              18            0                      
                              20            0                      
                              22            0                      
                              24            0                      
                              26            0                      
                              28            0                      
                              30            0                      
                              32            0                      
                              34            0                      
                              36            0                      
                              38            0                      
                              40            0                      
                              42            0                      
                              44            0                      
                              46            0                      
                              48            0                      
                              50            0                      
                              52            0                      
                              54            0                      
                              56            0                      
                              58            0                      
                              60            0                      
                              62            0                      
                              64            0                      
                              66            0                      
                              68            0                      
                              70            0                      
                              72            0                      
                              74            0                      
                              76            0                      
                              78            0                      
                              80            0                      
                              82            0                      
                              84            0                      
                              86            0                      
                              88            0                      
                              90            0                      
                              92            0                      
                              94            0                      
                              96            0                      
                              98            0                      
cpu.IQ:residence:(null).max_value                   0                      
cpu.IQ:residence:(null).end_dist

cpu.IQ:residence:IntAlu.start_dist                             # cycles from dispatch to issue
cpu.IQ:residence:IntAlu.samples                867818                      
cpu.IQ:residence:IntAlu.min_value                   1                      
                               0       153516   1768.99%   1768.99%
                               2       126547   1458.22%   3227.21%
                               4        68428    788.51%   4015.72%
                               6        93011   1071.78%   5087.50%
                               8        70652    814.13%   5901.63%
                              10        63744    734.53%   6636.16%
                              12        72111    830.95%   7467.11%
                              14        45048    519.10%   7986.20%
                              16        35367    407.54%   8393.74%
                              18        41414    477.22%   8870.96%
                              20        26883    309.78%   9180.74%
                              22        13978    161.07%   9341.81%
                              24         9556    110.12%   9451.92%
                              26         8171     94.16%   9546.08%
                              28         5036     58.03%   9604.11%
                              30         4824     55.59%   9659.70%
                              32         2476     28.53%   9688.23%
                              34         2009     23.15%   9711.38%
                              36         1895     21.84%   9733.22%
                              38         1055     12.16%   9745.37%
                              40          825      9.51%   9754.88%
                              42          486      5.60%   9760.48%
                              44          312      3.60%   9764.07%
                              46          205      2.36%   9766.44%
                              48           95      1.09%   9767.53%
                              50           77      0.89%   9768.42%
                              52           97      1.12%   9769.54%
                              54           99      1.14%   9770.68%
                              56          127      1.46%   9772.14%
                              58          153      1.76%   9773.90%
                              60          210      2.42%   9776.32%
                              62          106      1.22%   9777.55%
                              64          158      1.82%   9779.37%
                              66          144      1.66%   9781.03%
                              68          108      1.24%   9782.27%
                              70          109      1.26%   9783.53%
                              72          104      1.20%   9784.72%
                              74           75      0.86%   9785.59%
                              76           76      0.88%   9786.46%
                              78           85      0.98%   9787.44%
                              80          117      1.35%   9788.79%
                              82          101      1.16%   9789.96%
                              84          123      1.42%   9791.37%
                              86          118      1.36%   9792.73%
                              88           70      0.81%   9793.54%
                              90           90      1.04%   9794.58%
                              92          189      2.18%   9796.75%
                              94          153      1.76%   9798.52%
                              96          108      1.24%   9799.76%
                              98          158      1.82%   9801.58%
cpu.IQ:residence:IntAlu.overflows               17219                      
cpu.IQ:residence:IntAlu.max_value                 804                      
cpu.IQ:residence:IntAlu.end_dist

cpu.IQ:residence:IntMult.start_dist                            # cycles from dispatch to issue
cpu.IQ:residence:IntMult.samples                  313                      
cpu.IQ:residence:IntMult.min_value                  1                      
                               0            9    287.54%    287.54%
                               2           31    990.42%   1277.96%
                               4            8    255.59%   1533.55%
                               6          115   3674.12%   5207.67%
                               8            7    223.64%   5431.31%
                              10           17    543.13%   5974.44%
                              12           17    543.13%   6517.57%
                              14           15    479.23%   6996.81%
                              16           11    351.44%   7348.24%
                              18           23    734.82%   8083.07%
                              20            3     95.85%   8178.91%
                              22            6    191.69%   8370.61%
                              24            3     95.85%   8466.45%
                              26            6    191.69%   8658.15%
                              28            2     63.90%   8722.04%
                              30            0      0.00%   8722.04%
                              32            0      0.00%   8722.04%
                              34            4    127.80%   8849.84%
                              36            0      0.00%   8849.84%
                              38            4    127.80%   8977.64%
                              40            0      0.00%   8977.64%
                              42            5    159.74%   9137.38%
                              44            0      0.00%   9137.38%
                              46            0      0.00%   9137.38%
                              48            0      0.00%   9137.38%
                              50            0      0.00%   9137.38%
                              52            1     31.95%   9169.33%
                              54            0      0.00%   9169.33%
                              56            0      0.00%   9169.33%
                              58            0      0.00%   9169.33%
                              60            0      0.00%   9169.33%
                              62            0      0.00%   9169.33%
                              64            0      0.00%   9169.33%
                              66            0      0.00%   9169.33%
                              68            0      0.00%   9169.33%
                              70            0      0.00%   9169.33%
                              72            1     31.95%   9201.28%
                              74            0      0.00%   9201.28%
                              76            0      0.00%   9201.28%
                              78            0      0.00%   9201.28%
                              80            0      0.00%   9201.28%
                              82            0      0.00%   9201.28%
                              84            1     31.95%   9233.23%
                              86            0      0.00%   9233.23%
                              88            0      0.00%   9233.23%
                              90            0      0.00%   9233.23%
                              92            0      0.00%   9233.23%
                              94            0      0.00%   9233.23%
                              96            0      0.00%   9233.23%
                              98            1     31.95%   9265.18%
cpu.IQ:residence:IntMult.overflows                 23                      
cpu.IQ:residence:IntMult.max_value                157                      
cpu.IQ:residence:IntMult.end_dist

cpu.IQ:residence:IntDiv.start_dist                             # cycles from dispatch to issue
cpu.IQ:residence:IntDiv.samples                     0                      
cpu.IQ:residence:IntDiv.min_value                   0                      
                               0            0                      
                               2            0                      
                               4            0                      
                               6            0                      
                               8            0                      
                              10            0                      
                              12            0                      
                              14            0                      
                              16            0                      
                              18            0                      
                              20            0                      
                              22            0                      
                              24            0                      
                              26            0                      
                              28            0                      
                              30            0                      
                              32            0                      
                              34            0                      
                              36            0                      
                              38            0                      
                              40            0                      
                              42            0                      
                              44            0                      
                              46            0                      
                              48            0                      
                              50            0                      
                              52            0                      
                              54            0                      
                              56            0                      
                              58            0                      
                              60            0                      
                              62            0                      
                              64            0                      
                              66            0                      
                              68            0                      
                              70            0                      
                              72            0                      
                              74            0                      
                              76            0                      
                              78            0                      
                              80            0                      
                              82            0                      
                              84            0                      
                              86            0                      
                              88            0                      
                              90            0                      
                              92            0                      
                              94            0                      
                              96            0                      
                              98            0                      
cpu.IQ:residence:IntDiv.max_value                   0                      
cpu.IQ:residence:IntDiv.end_dist

cpu.IQ:residence:FloatAdd.start_dist                           # cycles from dispatch to issue
cpu.IQ:residence:FloatAdd.samples                 101                      
cpu.IQ:residence:FloatAdd.min_value                 1                      
                               0            4    396.04%    396.04%
                               2            2    198.02%    594.06%
                               4            4    396.04%    990.10%
                               6           10    990.10%   1980.20%
                               8            7    693.07%   2673.27%
                              10            5    495.05%   3168.32%
                              12           12   1188.12%   4356.44%
                              14           16   1584.16%   5940.59%
                              16           11   1089.11%   7029.70%
                              18            7    693.07%   7722.77%
                              20            9    891.09%   8613.86%
                              22            7    693.07%   9306.93%
                              24            3    297.03%   9603.96%
                              26            0      0.00%   9603.96%
                              28            3    297.03%   9900.99%
                              30            1     99.01%  10000.00%
                              32            0      0.00%  10000.00%
                              34            0      0.00%  10000.00%
                              36            0      0.00%  10000.00%
                              38            0      0.00%  10000.00%
                              40            0      0.00%  10000.00%
                              42            0      0.00%  10000.00%
                              44            0      0.00%  10000.00%
                              46            0      0.00%  10000.00%
                              48            0      0.00%  10000.00%
                              50            0      0.00%  10000.00%
                              52            0      0.00%  10000.00%
                              54            0      0.00%  10000.00%
                              56            0      0.00%  10000.00%
                              58            0      0.00%  10000.00%
                              60            0      0.00%  10000.00%
                              62            0      0.00%  10000.00%
                              64            0      0.00%  10000.00%
                              66            0      0.00%  10000.00%
                              68            0      0.00%  10000.00%
                              70            0      0.00%  10000.00%
                              72            0      0.00%  10000.00%
                              74            0      0.00%  10000.00%
                              76            0      0.00%  10000.00%
                              78            0      0.00%  10000.00%
                              80            0      0.00%  10000.00%
                              82            0      0.00%  10000.00%
                              84            0      0.00%  10000.00%
                              86            0      0.00%  10000.00%
                              88            0      0.00%  10000.00%
                              90            0      0.00%  10000.00%
                              92            0      0.00%  10000.00%
                              94            0      0.00%  10000.00%
                              96            0      0.00%  10000.00%
                              98            0      0.00%  10000.00%
cpu.IQ:residence:FloatAdd.max_value                30                      
cpu.IQ:residence:FloatAdd.end_dist

cpu.IQ:residence:FloatCmp.start_dist                           # cycles from dispatch to issue
cpu.IQ:residence:FloatCmp.samples                  11                      
cpu.IQ:residence:FloatCmp.min_value                15                      
                               0            0      0.00%      0.00%
                               2            0      0.00%      0.00%
                               4            0      0.00%      0.00%
                               6            0      0.00%      0.00%
                               8            0      0.00%      0.00%
                              10            0      0.00%      0.00%
                              12            0      0.00%      0.00%
                              14            3   2727.27%   2727.27%
                              16            5   4545.45%   7272.73%
                              18            0      0.00%   7272.73%
                              20            1    909.09%   8181.82%
                              22            1    909.09%   9090.91%
                              24            0      0.00%   9090.91%
                              26            0      0.00%   9090.91%
                              28            1    909.09%  10000.00%
                              30            0      0.00%  10000.00%
                              32            0      0.00%  10000.00%
                              34            0      0.00%  10000.00%
                              36            0      0.00%  10000.00%
                              38            0      0.00%  10000.00%
                              40            0      0.00%  10000.00%
                              42            0      0.00%  10000.00%
                              44            0      0.00%  10000.00%
                              46            0      0.00%  10000.00%
                              48            0      0.00%  10000.00%
                              50            0      0.00%  10000.00%
                              52            0      0.00%  10000.00%
                              54            0      0.00%  10000.00%
                              56            0      0.00%  10000.00%
                              58            0      0.00%  10000.00%
                              60            0      0.00%  10000.00%
                              62            0      0.00%  10000.00%
                              64            0      0.00%  10000.00%
                              66            0      0.00%  10000.00%
                              68            0      0.00%  10000.00%
                              70            0      0.00%  10000.00%
                              72            0      0.00%  10000.00%
                              74            0      0.00%  10000.00%
                              76            0      0.00%  10000.00%
                              78            0      0.00%  10000.00%
                              80            0      0.00%  10000.00%
                              82            0      0.00%  10000.00%
                              84            0      0.00%  10000.00%
                              86            0      0.00%  10000.00%
                              88            0      0.00%  10000.00%
                              90            0      0.00%  10000.00%
                              92            0      0.00%  10000.00%
                              94            0      0.00%  10000.00%
                              96            0      0.00%  10000.00%
                              98            0      0.00%  10000.00%
cpu.IQ:residence:FloatCmp.max_value                28                      
cpu.IQ:residence:FloatCmp.end_dist

cpu.IQ:residence:FloatCvt.start_dist                           # cycles from dispatch to issue
cpu.IQ:residence:FloatCvt.samples                  45                      
cpu.IQ:residence:FloatCvt.min_value                 1                      
                               0            2    444.44%    444.44%
                               2           24   5333.33%   5777.78%
                               4            1    222.22%   6000.00%
                               6            0      0.00%   6000.00%
                               8            0      0.00%   6000.00%
                              10            0      0.00%   6000.00%
                              12            1    222.22%   6222.22%
                              14            1    222.22%   6444.44%
                              16            1    222.22%   6666.67%
                              18            3    666.67%   7333.33%
                              20            3    666.67%   8000.00%
                              22            1    222.22%   8222.22%
                              24            7   1555.56%   9777.78%
                              26            0      0.00%   9777.78%
                              28            0      0.00%   9777.78%
                              30            0      0.00%   9777.78%
                              32            0      0.00%   9777.78%
                              34            0      0.00%   9777.78%
                              36            0      0.00%   9777.78%
                              38            0      0.00%   9777.78%
                              40            0      0.00%   9777.78%
                              42            0      0.00%   9777.78%
                              44            0      0.00%   9777.78%
                              46            0      0.00%   9777.78%
                              48            0      0.00%   9777.78%
                              50            0      0.00%   9777.78%
                              52            0      0.00%   9777.78%
                              54            0      0.00%   9777.78%
                              56            0      0.00%   9777.78%
                              58            0      0.00%   9777.78%
                              60            0      0.00%   9777.78%
                              62            0      0.00%   9777.78%
                              64            0      0.00%   9777.78%
                              66            0      0.00%   9777.78%
                              68            0      0.00%   9777.78%
                              70            0      0.00%   9777.78%
                              72            0      0.00%   9777.78%
                              74            0      0.00%   9777.78%
                              76            0      0.00%   9777.78%
                              78            0      0.00%   9777.78%
                              80            0      0.00%   9777.78%
                              82            0      0.00%   9777.78%
                              84            0      0.00%   9777.78%
                              86            0      0.00%   9777.78%
                              88            0      0.00%   9777.78%
                              90            0      0.00%   9777.78%
                              92            0      0.00%   9777.78%
                              94            0      0.00%   9777.78%
                              96            0      0.00%   9777.78%
                              98            0      0.00%   9777.78%
cpu.IQ:residence:FloatCvt.overflows                 1                      
cpu.IQ:residence:FloatCvt.max_value               136                      
cpu.IQ:residence:FloatCvt.end_dist

cpu.IQ:residence:FloatMult.start_dist                          # cycles from dispatch to issue
cpu.IQ:residence:FloatMult.samples                 14                      
cpu.IQ:residence:FloatMult.min_value                5                      
                               0            0      0.00%      0.00%
                               2            0      0.00%      0.00%
                               4            1    714.29%    714.29%
                               6            1    714.29%   1428.57%
                               8            0      0.00%   1428.57%
                              10            1    714.29%   2142.86%
                              12            6   4285.71%   6428.57%
                              14            4   2857.14%   9285.71%
                              16            0      0.00%   9285.71%
                              18            0      0.00%   9285.71%
                              20            0      0.00%   9285.71%
                              22            0      0.00%   9285.71%
                              24            1    714.29%  10000.00%
                              26            0      0.00%  10000.00%
                              28            0      0.00%  10000.00%
                              30            0      0.00%  10000.00%
                              32            0      0.00%  10000.00%
                              34            0      0.00%  10000.00%
                              36            0      0.00%  10000.00%
                              38            0      0.00%  10000.00%
                              40            0      0.00%  10000.00%
                              42            0      0.00%  10000.00%
                              44            0      0.00%  10000.00%
                              46            0      0.00%  10000.00%
                              48            0      0.00%  10000.00%
                              50            0      0.00%  10000.00%
                              52            0      0.00%  10000.00%
                              54            0      0.00%  10000.00%
                              56            0      0.00%  10000.00%
                              58            0      0.00%  10000.00%
                              60            0      0.00%  10000.00%
                              62            0      0.00%  10000.00%
                              64            0      0.00%  10000.00%
                              66            0      0.00%  10000.00%
                              68            0      0.00%  10000.00%
                              70            0      0.00%  10000.00%
                              72            0      0.00%  10000.00%
                              74            0      0.00%  10000.00%
                              76            0      0.00%  10000.00%
                              78            0      0.00%  10000.00%
                              80            0      0.00%  10000.00%
                              82            0      0.00%  10000.00%
                              84            0      0.00%  10000.00%
                              86            0      0.00%  10000.00%
                              88            0      0.00%  10000.00%
                              90            0      0.00%  10000.00%
                              92            0      0.00%  10000.00%
                              94            0      0.00%  10000.00%
                              96            0      0.00%  10000.00%
                              98            0      0.00%  10000.00%
cpu.IQ:residence:FloatMult.max_value               25                      
cpu.IQ:residence:FloatMult.end_dist

cpu.IQ:residence:FloatDiv.start_dist                           # cycles from dispatch to issue
cpu.IQ:residence:FloatDiv.samples                   0                      
cpu.IQ:residence:FloatDiv.min_value                 0                      
                               0            0                      
                               2            0                      
                               4            0                      
                               6            0                      
                               8            0                      
                              10            0                      
                              12            0                      
                              14            0                      
                              16            0                      
                              18            0                      
                              20            0                      
                              22            0                      
                              24            0                      
                              26            0                      
                              28            0                      
                              30            0                      
                              32            0                      
                              34            0                      
                              36            0                      
                              38            0                      
                              40            0                      
                              42            0                      
                              44            0                      
                              46            0                      
                              48            0                      
                              50            0                      
                              52            0                      
                              54            0                      
                              56            0                      
                              58            0                      
                              60            0                      
                              62            0                      
                              64            0                      
                              66            0                      
                              68            0                      
                              70            0                      
                              72            0                      
                              74            0                      
                              76            0                      
                              78            0                      
                              80            0                      
                              82            0                      
                              84            0                      
                              86            0                      
                              88            0                      
                              90            0                      
                              92            0                      
                              94            0                      
                              96            0                      
                              98            0                      
cpu.IQ:residence:FloatDiv.max_value                 0                      
cpu.IQ:residence:FloatDiv.end_dist

cpu.IQ:residence:FloatSqrt.start_dist                          # cycles from dispatch to issue
cpu.IQ:residence:FloatSqrt.samples                  0                      
cpu.IQ:residence:FloatSqrt.min_value                0                      
                               0            0                      
                               2            0                      
                               4            0                      
                               6            0                      
                               8            0                      
                              10            0                      
                              12            0                      
                              14            0                      
                              16            0                      
                              18            0                      
                              20            0                      
                              22            0                      
                              24            0                      
                              26            0                      
                              28            0                      
                              30            0                      
                              32            0                      
                              34            0                      
                              36            0                      
                              38            0                      
                              40            0                      
                              42            0                      
                              44            0                      
                              46            0                      
                              48            0                      
                              50            0                      
                              52            0                      
                              54            0                      
                              56            0                      
                              58            0                      
                              60            0                      
                              62            0                      
                              64            0                      
                              66            0                      
                              68            0                      
                              70            0                      
                              72            0                      
                              74            0                      
                              76            0                      
                              78            0                      
                              80            0                      
                              82            0                      
                              84            0                      
                              86            0                      
                              88            0                      
                              90            0                      
                              92            0                      
                              94            0                      
                              96            0                      
                              98            0                      
cpu.IQ:residence:FloatSqrt.max_value                0                      
cpu.IQ:residence:FloatSqrt.end_dist

cpu.IQ:residence:MemRead.start_dist                            # cycles from dispatch to issue
cpu.IQ:residence:MemRead.samples               604474                      
cpu.IQ:residence:MemRead.min_value                  1                      
                               0        82796   1369.72%   1369.72%
                               2       159775   2643.21%   4012.93%
                               4        69291   1146.30%   5159.23%
                               6        63382   1048.55%   6207.78%
                               8        60853   1006.71%   7214.49%
                              10        44669    738.97%   7953.46%
                              12        34029    562.95%   8516.41%
                              14        22881    378.53%   8894.94%
                              16        19091    315.83%   9210.77%
                              18        11913    197.08%   9407.85%
                              20         7109    117.61%   9525.46%
                              22         6116    101.18%   9626.63%
                              24         2412     39.90%   9666.54%
                              26         2248     37.19%   9703.73%
                              28         1509     24.96%   9728.69%
                              30         1467     24.27%   9752.96%
                              32         2013     33.30%   9786.26%
                              34          889     14.71%   9800.97%
                              36         1664     27.53%   9828.50%
                              38          784     12.97%   9841.47%
                              40         1214     20.08%   9861.55%
                              42          404      6.68%   9868.23%
                              44          207      3.42%   9871.66%
                              46           49      0.81%   9872.47%
                              48           73      1.21%   9873.68%
                              50           39      0.65%   9874.32%
                              52           81      1.34%   9875.66%
                              54           83      1.37%   9877.03%
                              56          178      2.94%   9879.98%
                              58           77      1.27%   9881.25%
                              60          107      1.77%   9883.02%
                              62          113      1.87%   9884.89%
                              64           94      1.56%   9886.45%
                              66           97      1.60%   9888.05%
                              68           64      1.06%   9889.11%
                              70           44      0.73%   9889.84%
                              72           47      0.78%   9890.62%
                              74           43      0.71%   9891.33%
                              76           63      1.04%   9892.37%
                              78           56      0.93%   9893.30%
                              80           74      1.22%   9894.52%
                              82           76      1.26%   9895.78%
                              84           58      0.96%   9896.74%
                              86           88      1.46%   9898.19%
                              88          131      2.17%   9900.36%
                              90          107      1.77%   9902.13%
                              92           77      1.27%   9903.40%
                              94           80      1.32%   9904.73%
                              96          145      2.40%   9907.13%
                              98          131      2.17%   9909.29%
cpu.IQ:residence:MemRead.overflows               5483                      
cpu.IQ:residence:MemRead.max_value                700                      
cpu.IQ:residence:MemRead.end_dist

cpu.IQ:residence:MemWrite.start_dist                           # cycles from dispatch to issue
cpu.IQ:residence:MemWrite.samples              405624                      
cpu.IQ:residence:MemWrite.min_value                 1                      
                               0        34876    859.81%    859.81%
                               2        96255   2373.01%   3232.82%
                               4        49465   1219.48%   4452.30%
                               6        42584   1049.84%   5502.14%
                               8        43766   1078.98%   6581.12%
                              10        42517   1048.19%   7629.31%
                              12        43167   1064.21%   8693.52%
                              14        15650    385.83%   9079.34%
                              16        10540    259.85%   9339.19%
                              18         8560    211.03%   9550.22%
                              20         5446    134.26%   9684.49%
                              22         2174     53.60%   9738.08%
                              24         1382     34.07%   9772.15%
                              26          628     15.48%   9787.64%
                              28          565     13.93%   9801.56%
                              30          750     18.49%   9820.06%
                              32          513     12.65%   9832.70%
                              34          440     10.85%   9843.55%
                              36          487     12.01%   9855.56%
                              38          177      4.36%   9859.92%
                              40          307      7.57%   9867.49%
                              42          159      3.92%   9871.41%
                              44          139      3.43%   9874.83%
                              46          148      3.65%   9878.48%
                              48           46      1.13%   9879.62%
                              50           41      1.01%   9880.63%
                              52           36      0.89%   9881.52%
                              54           53      1.31%   9882.82%
                              56           53      1.31%   9884.13%
                              58           48      1.18%   9885.31%
                              60           31      0.76%   9886.08%
                              62          150      3.70%   9889.77%
                              64           76      1.87%   9891.65%
                              66           72      1.78%   9893.42%
                              68           52      1.28%   9894.71%
                              70           40      0.99%   9895.69%
                              72           37      0.91%   9896.60%
                              74           44      1.08%   9897.69%
                              76           43      1.06%   9898.75%
                              78           37      0.91%   9899.66%
                              80           51      1.26%   9900.92%
                              82           48      1.18%   9902.10%
                              84           69      1.70%   9903.80%
                              86           45      1.11%   9904.91%
                              88           66      1.63%   9906.54%
                              90           81      2.00%   9908.54%
                              92           62      1.53%   9910.06%
                              94           75      1.85%   9911.91%
                              96           57      1.41%   9913.32%
                              98           59      1.45%   9914.77%
cpu.IQ:residence:MemWrite.overflows              3457                      
cpu.IQ:residence:MemWrite.max_value               803                      
cpu.IQ:residence:MemWrite.end_dist

cpu.IQ:residence:IprAccess.start_dist                          # cycles from dispatch to issue
cpu.IQ:residence:IprAccess.samples                  0                      
cpu.IQ:residence:IprAccess.min_value                0                      
                               0            0                      
                               2            0                      
                               4            0                      
                               6            0                      
                               8            0                      
                              10            0                      
                              12            0                      
                              14            0                      
                              16            0                      
                              18            0                      
                              20            0                      
                              22            0                      
                              24            0                      
                              26            0                      
                              28            0                      
                              30            0                      
                              32            0                      
                              34            0                      
                              36            0                      
                              38            0                      
                              40            0                      
                              42            0                      
                              44            0                      
                              46            0                      
                              48            0                      
                              50            0                      
                              52            0                      
                              54            0                      
                              56            0                      
                              58            0                      
                              60            0                      
                              62            0                      
                              64            0                      
                              66            0                      
                              68            0                      
                              70            0                      
                              72            0                      
                              74            0                      
                              76            0                      
                              78            0                      
                              80            0                      
                              82            0                      
                              84            0                      
                              86            0                      
                              88            0                      
                              90            0                      
                              92            0                      
                              94            0                      
                              96            0                      
                              98            0                      
cpu.IQ:residence:IprAccess.max_value                0                      
cpu.IQ:residence:IprAccess.end_dist

cpu.IQ:residence:InstPrefetch.start_dist                       # cycles from dispatch to issue
cpu.IQ:residence:InstPrefetch.samples               0                      
cpu.IQ:residence:InstPrefetch.min_value             0                      
                               0            0                      
                               2            0                      
                               4            0                      
                               6            0                      
                               8            0                      
                              10            0                      
                              12            0                      
                              14            0                      
                              16            0                      
                              18            0                      
                              20            0                      
                              22            0                      
                              24            0                      
                              26            0                      
                              28            0                      
                              30            0                      
                              32            0                      
                              34            0                      
                              36            0                      
                              38            0                      
                              40            0                      
                              42            0                      
                              44            0                      
                              46            0                      
                              48            0                      
                              50            0                      
                              52            0                      
                              54            0                      
                              56            0                      
                              58            0                      
                              60            0                      
                              62            0                      
                              64            0                      
                              66            0                      
                              68            0                      
                              70            0                      
                              72            0                      
                              74            0                      
                              76            0                      
                              78            0                      
                              80            0                      
                              82            0                      
                              84            0                      
                              86            0                      
                              88            0                      
                              90            0                      
                              92            0                      
                              94            0                      
                              96            0                      
                              98            0                      
cpu.IQ:residence:InstPrefetch.max_value             0                      
cpu.IQ:residence:InstPrefetch.end_dist

cpu.ISSUE:(null)_delay.start_dist                              # cycles from operands ready to issue
cpu.ISSUE:(null)_delay.samples                      0                      
cpu.ISSUE:(null)_delay.min_value                    0                      
                               0            0                      
                               2            0                      
                               4            0                      
                               6            0                      
                               8            0                      
                              10            0                      
                              12            0                      
                              14            0                      
                              16            0                      
                              18            0                      
                              20            0                      
                              22            0                      
                              24            0                      
                              26            0                      
                              28            0                      
                              30            0                      
                              32            0                      
                              34            0                      
                              36            0                      
                              38            0                      
                              40            0                      
                              42            0                      
                              44            0                      
                              46            0                      
                              48            0                      
                              50            0                      
                              52            0                      
                              54            0                      
                              56            0                      
                              58            0                      
                              60            0                      
                              62            0                      
                              64            0                      
                              66            0                      
                              68            0                      
                              70            0                      
                              72            0                      
                              74            0                      
                              76            0                      
                              78            0                      
                              80            0                      
                              82            0                      
                              84            0                      
                              86            0                      
                              88            0                      
                              90            0                      
                              92            0                      
                              94            0                      
                              96            0                      
                              98            0                      
cpu.ISSUE:(null)_delay.max_value                    0                      
cpu.ISSUE:(null)_delay.end_dist

cpu.ISSUE:IntAlu_delay.start_dist                              # cycles from operands ready to issue
cpu.ISSUE:IntAlu_delay.samples                 867818                      
cpu.ISSUE:IntAlu_delay.min_value                    0                      
                               0       731387   8427.88%   8427.88%
                               2        85642    986.87%   9414.75%
                               4        25302    291.56%   9706.31%
                               6        15828    182.39%   9888.70%
                               8         6163     71.02%   9959.72%
                              10         2702     31.14%   9990.85%
                              12          794      9.15%  10000.00%
                              14            0      0.00%  10000.00%
                              16            0      0.00%  10000.00%
                              18            0      0.00%  10000.00%
                              20            0      0.00%  10000.00%
                              22            0      0.00%  10000.00%
                              24            0      0.00%  10000.00%
                              26            0      0.00%  10000.00%
                              28            0      0.00%  10000.00%
                              30            0      0.00%  10000.00%
                              32            0      0.00%  10000.00%
                              34            0      0.00%  10000.00%
                              36            0      0.00%  10000.00%
                              38            0      0.00%  10000.00%
                              40            0      0.00%  10000.00%
                              42            0      0.00%  10000.00%
                              44            0      0.00%  10000.00%
                              46            0      0.00%  10000.00%
                              48            0      0.00%  10000.00%
                              50            0      0.00%  10000.00%
                              52            0      0.00%  10000.00%
                              54            0      0.00%  10000.00%
                              56            0      0.00%  10000.00%
                              58            0      0.00%  10000.00%
                              60            0      0.00%  10000.00%
                              62            0      0.00%  10000.00%
                              64            0      0.00%  10000.00%
                              66            0      0.00%  10000.00%
                              68            0      0.00%  10000.00%
                              70            0      0.00%  10000.00%
                              72            0      0.00%  10000.00%
                              74            0      0.00%  10000.00%
                              76            0      0.00%  10000.00%
                              78            0      0.00%  10000.00%
                              80            0      0.00%  10000.00%
                              82            0      0.00%  10000.00%
                              84            0      0.00%  10000.00%
                              86            0      0.00%  10000.00%
                              88            0      0.00%  10000.00%
                              90            0      0.00%  10000.00%
                              92            0      0.00%  10000.00%
                              94            0      0.00%  10000.00%
                              96            0      0.00%  10000.00%
                              98            0      0.00%  10000.00%
cpu.ISSUE:IntAlu_delay.max_value                   13                      
cpu.ISSUE:IntAlu_delay.end_dist

cpu.ISSUE:IntMult_delay.start_dist                             # cycles from operands ready to issue
cpu.ISSUE:IntMult_delay.samples                   313                      
cpu.ISSUE:IntMult_delay.min_value                   0                      
                               0          300   9584.66%   9584.66%
                               2           13    415.34%  10000.00%
                               4            0      0.00%  10000.00%
                               6            0      0.00%  10000.00%
                               8            0      0.00%  10000.00%
                              10            0      0.00%  10000.00%
                              12            0      0.00%  10000.00%
                              14            0      0.00%  10000.00%
                              16            0      0.00%  10000.00%
                              18            0      0.00%  10000.00%
                              20            0      0.00%  10000.00%
                              22            0      0.00%  10000.00%
                              24            0      0.00%  10000.00%
                              26            0      0.00%  10000.00%
                              28            0      0.00%  10000.00%
                              30            0      0.00%  10000.00%
                              32            0      0.00%  10000.00%
                              34            0      0.00%  10000.00%
                              36            0      0.00%  10000.00%
                              38            0      0.00%  10000.00%
                              40            0      0.00%  10000.00%
                              42            0      0.00%  10000.00%
                              44            0      0.00%  10000.00%
                              46            0      0.00%  10000.00%
                              48            0      0.00%  10000.00%
                              50            0      0.00%  10000.00%
                              52            0      0.00%  10000.00%
                              54            0      0.00%  10000.00%
                              56            0      0.00%  10000.00%
                              58            0      0.00%  10000.00%
                              60            0      0.00%  10000.00%
                              62            0      0.00%  10000.00%
                              64            0      0.00%  10000.00%
                              66            0      0.00%  10000.00%
                              68            0      0.00%  10000.00%
                              70            0      0.00%  10000.00%
                              72            0      0.00%  10000.00%
                              74            0      0.00%  10000.00%
                              76            0      0.00%  10000.00%
                              78            0      0.00%  10000.00%
                              80            0      0.00%  10000.00%
                              82            0      0.00%  10000.00%
                              84            0      0.00%  10000.00%
                              86            0      0.00%  10000.00%
                              88            0      0.00%  10000.00%
                              90            0      0.00%  10000.00%
                              92            0      0.00%  10000.00%
                              94            0      0.00%  10000.00%
                              96            0      0.00%  10000.00%
                              98            0      0.00%  10000.00%
cpu.ISSUE:IntMult_delay.max_value                   3                      
cpu.ISSUE:IntMult_delay.end_dist

cpu.ISSUE:IntDiv_delay.start_dist                              # cycles from operands ready to issue
cpu.ISSUE:IntDiv_delay.samples                      0                      
cpu.ISSUE:IntDiv_delay.min_value                    0                      
                               0            0                      
                               2            0                      
                               4            0                      
                               6            0                      
                               8            0                      
                              10            0                      
                              12            0                      
                              14            0                      
                              16            0                      
                              18            0                      
                              20            0                      
                              22            0                      
                              24            0                      
                              26            0                      
                              28            0                      
                              30            0                      
                              32            0                      
                              34            0                      
                              36            0                      
                              38            0                      
                              40            0                      
                              42            0                      
                              44            0                      
                              46            0                      
                              48            0                      
                              50            0                      
                              52            0                      
                              54            0                      
                              56            0                      
                              58            0                      
                              60            0                      
                              62            0                      
                              64            0                      
                              66            0                      
[...]
cpu.icache.replacements                          3392                       # number of replacements
cpu.icache.sampled_refs                          4394                       # Sample count of references to valid blocks.
cpu.icache.soft_prefetch_mshr_full                  0                       # number of mshr full events for SW prefetching instrutions
cpu.icache.tagsinuse                       774.622257                       # Cycle average of tags in use
cpu.icache.total_refs                          826730                       # Total number of references to valid blocks.
cpu.icache.warmup_cycle                             0                       # Cycle when the warmup percentage was hit.
cpu.icache.writebacks                               0                       # number of writebacks
cpu.iq:RQ:rdy_inst                            2386067                       # Number of ready instructions (cum)
cpu.iq:RQ:rdy_inst_dist_0_mean               3.166195                       # standard deviation of ready rate
cpu.iq:RQ:rdy_inst_dist_0_stdev              5.118659                       # standard deviation of ready rate
**Ignore: cpu.iq:RQ:rdy_inst_dist_0_TOT        753607                       # standard deviation of ready rate
cpu.iq:RQ:rdy_rate                           3.166195                       # Number of ready insts per cycle
cpu.iq:RQ:rdy_x_count                         1438142                       # number of insts that become ready (cum)
cpu.iq:RQ:rdy_x_max                                31                       # largest number of insts that become ready
cpu.iq:RQ:rdy_x_rate                         1.908345                       # number of insts that become ready per cycle
cpu.iq:avg_residency                        11.633059                       # Average IQ residency
cpu.iq:cum_num_insts                         16157447                       # Total occupancy
cpu.iq:current_count                                2                       # Occupancy this cycle
cpu.iq:empty_count                             318656                       # Number of empty cycles
cpu.iq:empty_rate                           42.284108                       # Fraction of cycles empty
cpu.iq:full_count                               92416                       # Number of full cycles
cpu.iq:full_rate                            12.263156                       # Fraction of cycles full
cpu.iq:occ_dist_0.start_dist                                   # IQ Occupancy per cycle
cpu.iq:occ_dist_0.samples                      753607                      
cpu.iq:occ_dist_0.min_value                         0                      
                               0       330600              4386.90%
                               2        22010              4678.96%
                               4        12163              4840.36%
                               6         9893              4971.64%
                               8        13596              5152.05%
                              10        10189              5287.25%
                              12        11270              5436.80%
                              14        10206              5572.23%
                              16         9034              5692.10%
                              18        11114              5839.58%
                              20         9098              5960.31%
                              22         9326              6084.06%
                              24         9601              6211.46%
                              26        12858              6382.08%
                              28        11704              6537.39%
                              30         8999              6656.80%
                              32         8196              6765.56%
                              34         9611              6893.09%
                              36         9948              7025.09%
                              38        12350              7188.97%
                              40        11329              7339.30%
                              42         7044              7432.77%
                              44         7993              7538.84%
                              46        20150              7806.22%
                              48         6683              7894.90%
                              50         8469              8007.28%
                              52         8077              8114.45%
                              54         7724              8216.95%
                              56         7275              8313.48%
                              58         7297              8410.31%
                              60         8181              8518.87%
                              62        13274              8695.01%
                              64        98345             10000.00%
cpu.iq:occ_dist_0.max_value                        64                      
cpu.iq:occ_dist_0.end_dist

cpu.iq:occ_rate                             21.440150                       # Average occupancy
cpu.iq:peak_occupancy                              64                       # Peak IQ occupancy
cpu.l2.avg_blocked_cycles_no_mshrs       <err: div-0>                       # average number of cycles each access was blocked
cpu.l2.avg_blocked_cycles_no_targets     <err: div-0>                       # average number of cycles each access was blocked
cpu.l2.avg_refs                          <err: div-0>                       # Average number of references to valid blocks.
cpu.l2.blocked_no_mshrs                             0                       # number of cycles access was blocked
cpu.l2.blocked_no_targets                           0                       # number of cycles access was blocked
cpu.l2.blocked_cycles_no_mshrs                      0                       # number of cycles access was blocked
cpu.l2.blocked_cycles_no_targets                    0                       # number of cycles access was blocked
cpu.l2.cache_copies                                 0                       # number of cache copies performed
cpu.l2.demand_accesses                           7369                       # number of demand (read+write) accesses
cpu.l2.demand_avg_miss_latency             128.102789                       # average overall miss latency
cpu.l2.demand_avg_mshr_miss_latency        114.259363                       # average overall mshr miss latency
cpu.l2.demand_hits                               2349                       # number of demand (read+write) hits
cpu.l2.demand_miss_latency                     643076                       # number of demand (read+write) miss cycles
cpu.l2.demand_miss_rate                      0.681232                       # miss rate for demand accesses
cpu.l2.demand_misses                             5020                       # number of demand (read+write) misses
cpu.l2.demand_mshr_hits                             0                       # number of demand (read+write) MSHR hits
cpu.l2.demand_mshr_miss_latency                573582                       # number of demand (read+write) MSHR miss cycles
cpu.l2.demand_mshr_miss_rate                 0.681232                       # mshr miss rate for demand accesses
cpu.l2.demand_mshr_misses                        5020                       # number of demand (read+write) MSHR misses
cpu.l2.falru_accesses                            9476                       # The number of accesses to the FA LRU cache.
cpu.l2.falru_hits_128K                           2799                       # Hits in a 128K cache
cpu.l2.falru_hits_256K                           3741                       # Hits in a 256K cache
cpu.l2.falru_hits_512K                           3813                       # Hits in a 512K cache
cpu.l2.falru_hits_1M                             3813                       # Hits in a 1M cache
cpu.l2.falru_hits_2M                             3813                       # Hits in a 2M cache
cpu.l2.falru_misses_128K                         6677                       # Misses in a 128K cache
cpu.l2.falru_misses_256K                         5735                       # Misses in a 256K cache
cpu.l2.falru_misses_512K                         5663                       # Misses in a 512K cache
cpu.l2.falru_misses_1M                           5663                       # Misses in a 1M cache
cpu.l2.falru_misses_2M                           5663                       # Misses in a 2M cache
cpu.l2.fast_writes                                  0                       # number of fast writes performed
cpu.l2.mshr_cap_events                              0                       # number of times MSHR cap was activated
cpu.l2.no_allocate_misses                           0                       # Number of misses that were no-allocate
cpu.l2.overall_accesses                          9476                       # number of overall (read+write) accesses
cpu.l2.overall_avg_miss_latency            113.557478                       # average overall miss latency
cpu.l2.overall_avg_mshr_miss_latency       114.259363                       # average overall mshr miss latency
cpu.l2.overall_avg_mshr_uncacheable_latency <err: div-0>                       # average overall mshr uncacheable latency
cpu.l2.overall_hits                              3813                       # number of overall hits
cpu.l2.overall_miss_latency                    643076                       # number of overall miss cycles
cpu.l2.overall_miss_rate                     0.597615                       # miss rate for overall accesses
cpu.l2.overall_misses                            5663                       # number of overall misses
cpu.l2.overall_mshr_hits                            0                       # number of overall MSHR hits
cpu.l2.overall_mshr_miss_latency               573582                       # number of overall MSHR miss cycles
cpu.l2.overall_mshr_miss_rate                0.529759                       # mshr miss rate for overall accesses
cpu.l2.overall_mshr_misses                       5020                       # number of overall MSHR misses
cpu.l2.overall_mshr_uncacheable_latency             0                       # number of overall MSHR uncacheable cycles
cpu.l2.overall_mshr_uncacheable_misses              0                       # number of overall MSHR uncacheable misses
cpu.l2.prefetcher.num_hwpf_already_in_cache            0                       # number of hwpf that were already in the cache
cpu.l2.prefetcher.num_hwpf_already_in_mshr            0                       # number of hwpf that were already in mshr
cpu.l2.prefetcher.num_hwpf_already_in_prefetcher            0                       # number of hwpf that were already in the prefetch queue
cpu.l2.prefetcher.num_hwpf_evicted                  0                       # number of hwpf removed due to no buffer left
cpu.l2.prefetcher.num_hwpf_identified               0                       # number of hwpf identified
cpu.l2.prefetcher.num_hwpf_issued                   0                       # number of hwpf issued
cpu.l2.prefetcher.num_hwpf_removed_MSHR_hit            0                       # number of hwpf removed because MSHR allocated
cpu.l2.prefetcher.num_hwpf_span_page                0                       # number of hwpf spanning a virtual page
cpu.l2.prefetcher.num_hwpf_squashed_from_miss            0                       # number of hwpf that got squashed due to a miss aborting calculation time
cpu.l2.read_accesses                             7369                       # number of read accesses(hits+misses)
cpu.l2.read_avg_miss_latency               128.102789                       # average read miss latency
cpu.l2.read_avg_mshr_miss_latency          114.259363                       # average read mshr miss latency
cpu.l2.read_hits                                 2349                       # number of read hits
cpu.l2.read_miss_latency                       643076                       # number of read miss cycles
cpu.l2.read_miss_rate                        0.681232                       # miss rate for read accesses
cpu.l2.read_misses                               5020                       # number of read misses
cpu.l2.read_mshr_miss_latency                  573582                       # number of read MSHR miss cycles
cpu.l2.read_mshr_miss_rate                   0.681232                       # mshr miss rate for read accesses
cpu.l2.read_mshr_misses                          5020                       # number of read MSHR misses
cpu.l2.replacements                                 0                       # number of replacements
cpu.l2.sampled_refs                                 0                       # Sample count of references to valid blocks.
cpu.l2.soft_prefetch_mshr_full                      0                       # number of mshr full events for SW prefetching instrutions
cpu.l2.tagsinuse                          2845.448316                       # Cycle average of tags in use
cpu.l2.total_refs                                   0                       # Total number of references to valid blocks.
cpu.l2.warmup_cycle                                 0                       # Cycle when the warmup percentage was hit.
cpu.l2.writeback_accesses                        2107                       # number of writeback accesses(hits+misses)
cpu.l2.writeback_hits                            1464                       # number of writeback hits
cpu.l2.writeback_miss_rate                   0.305173                       # miss rate for writeback accesses
cpu.l2.writeback_misses                           643                       # number of writeback misses
cpu.l2.writeback_mshr_miss_rate              0.305173                       # mshr miss rate for writeback accesses
cpu.l2.writeback_mshr_misses                      643                       # number of writeback MSHR misses
cpu.l2.writebacks                                   0                       # number of writebacks
cpu.numCycles                                  753607                       # number of cpu cycles simulated
cpu.toL2Bus.addr_idle_cycles                   744126                       # number of cycles bus was idle
cpu.toL2Bus.addr_idle_fraction               0.987420                       # fraction of time addr bus was idle
cpu.toL2Bus.addr_queued                      3.310680                       # average queueing delay seen by bus request
cpu.toL2Bus.addr_queued_cycles                  31372                       # total number of queued cycles for all requests
cpu.toL2Bus.addr_requests                        9476                       # number of transmissions on bus
cpu.toL2Bus.bus_blocked                             0                       # number of times bus was blocked
cpu.toL2Bus.bus_blocked_cycles                      0                       # number of cycles bus was blocked
cpu.toL2Bus.bus_blocked_fraction                    0                       # fraction of time bus was blocked
cpu.toL2Bus.data_idle_cycles                   744122                       # number of cycles bus was idle
cpu.toL2Bus.data_idle_fraction               0.987415                       # fraction of time data bus was idle
cpu.toL2Bus.data_queued                      1.047503                       # average queueing delay seen by bus request
cpu.toL2Bus.data_queued_cycles                   7718                       # total number of queued cycles for all requests
cpu.toL2Bus.data_requests                        7368                       # number of transmissions on bus
cpu.toL2Bus.null_grants                           614                       # number of null grants (wasted cycles)
cpu.workload.MainMem.page_count                    36                       # total number of pages allocated
cpu.workload.MainMem.page_mem                     288                       # total size of memory pages allocated
cpu.workload.MainMem.ptab_accesses            4016555                       # total page table accessess
cpu.workload.MainMem.ptab_miss_rate            0.0052                       # first level page table miss rate
cpu.workload.MainMem.ptab_misses                20915                       # total first level page table misses
cpu.workload.PROG:num_syscalls                    127                       # Number of system calls
cpuinst_class_dist.start_dist
                   All ops ready            0      0.00%            # Operand status at dispatch
                One op not ready            0      0.00%            # Operand status at dispatch
           None rdy, mult chains            0      0.00%            # Operand status at dispatch
           None rdy, one chained            0      0.00%            # Operand status at dispatch
        None rdy, all self-timed            0      0.00%            # Operand status at dispatch
cpuinst_class_dist.end_dist
host_inst_rate                                  59314                       # Simulator instruction rate (inst/s)
host_mem_usage                                  18036                       # Number of bytes of host memory used
host_seconds                                    16.86                       # Real time elapsed on the host
host_tick_rate                                  44699                       # Simulator tick rate (ticks/s)
ram.accesses                                     5663                       # total number of accesses
ram.bytes_requested                                 0                       # total number of bytes requested
ram.bytes_sent                                      0                       # total number of bytes sent
ram.compressed_responses                            0                       # total number of accesses that are compressed
sim_freq                                    200000000                       # Frequency of simulated ticks
sim_insts                                     1000005                       # Number of instructions simulated
sim_seconds                                  0.003768                       # Number of seconds simulated
sim_ticks                                      753606                       # Number of ticks simulated
toMemBus.addr_idle_cycles                      747707                       # number of cycles bus was idle
toMemBus.addr_idle_fraction                  0.992172                       # fraction of time addr bus was idle
toMemBus.addr_queued                        11.383189                       # average queueing delay seen by bus request
toMemBus.addr_queued_cycles                     64463                       # total number of queued cycles for all requests
toMemBus.addr_requests                           5663                       # number of transmissions on bus
toMemBus.bus_blocked                                0                       # number of times bus was blocked
toMemBus.bus_blocked_cycles                         0                       # number of cycles bus was blocked
toMemBus.bus_blocked_fraction                       0                       # fraction of time bus was blocked
toMemBus.data_idle_cycles                      730822                       # number of cycles bus was idle
toMemBus.data_idle_fraction                  0.969767                       # fraction of time data bus was idle
toMemBus.data_queued                         1.845618                       # average queueing delay seen by bus request
toMemBus.data_queued_cycles                      9265                       # total number of queued cycles for all requests
toMemBus.data_requests                           5020                       # number of transmissions on bus
toMemBus.null_grants                                0                       # number of null grants (wasted cycles)

---------- End Simulation Statistics   ----------
