
---------- Begin Simulation Statistics ----------
cpu.COM:IPB                                  6.578497                       # Committed instructions per branch
cpu.COM:IPB_0                                5.986997                       # Committed instructions per branch
cpu.COM:IPB_1                                6.177443                       # Committed instructions per branch
cpu.COM:IPB_2                                7.872784                       # Committed instructions per branch
cpu.COM:IPB_3                                5.952051                       # Committed instructions per branch
cpu.COM:IPC                                  4.123961                       # Committed instructions per cycle
cpu.COM:IPC_0                                1.267507                       # Committed instructions per cycle
cpu.COM:IPC_1                                0.446382                       # Committed instructions per cycle
cpu.COM:IPC_2                                1.512572                       # Committed instructions per cycle
cpu.COM:IPC_3                                0.897499                       # Committed instructions per cycle
cpu.COM:branches                               414450                       # Number of branches committed
cpu.COM:branches_0                             139967                       # Number of branches committed
cpu.COM:branches_1                              47773                       # Number of branches committed
cpu.COM:branches_2                             127020                       # Number of branches committed
cpu.COM:branches_3                              99690                       # Number of branches committed
cpu.COM:bw_lim_avg                            17.6299                       # Avg number not committed in cycles BW limited
cpu.COM:bw_lim_avg_0                           4.1713                       # Avg number not committed in cycles BW limited
cpu.COM:bw_lim_avg_1                           2.0629                       # Avg number not committed in cycles BW limited
cpu.COM:bw_lim_avg_2                           7.8557                       # Avg number not committed in cycles BW limited
cpu.COM:bw_lim_avg_3                           3.5400                       # Avg number not committed in cycles BW limited
cpu.COM:bw_lim_events                          174593                       # number cycles where commit BW limit reached
cpu.COM:bw_lim_rate                            4.6558                       # Average number not committed due to BW (over all cycles)
cpu.COM:bw_lim_rate_0                          1.1016                       # Average number not committed due to BW (over all cycles)
cpu.COM:bw_lim_rate_1                          0.5448                       # Average number not committed due to BW (over all cycles)
cpu.COM:bw_lim_rate_2                          2.0746                       # Average number not committed due to BW (over all cycles)
cpu.COM:bw_lim_rate_3                          0.9349                       # Average number not committed due to BW (over all cycles)
cpu.COM:bw_lim_stdev_0_mean                    4.1713                       # standard deviation of bw_lim_avg value
cpu.COM:bw_lim_stdev_0_stdev                   6.7612                       # standard deviation of bw_lim_avg value
**Ignore: cpu.COM:bw_lim_stdev_0_TOT      174593.0000                       # standard deviation of bw_lim_avg value
cpu.COM:bw_lim_stdev_1_mean                    2.0629                       # standard deviation of bw_lim_avg value
cpu.COM:bw_lim_stdev_1_stdev                   7.3270                       # standard deviation of bw_lim_avg value
**Ignore: cpu.COM:bw_lim_stdev_1_TOT      174593.0000                       # standard deviation of bw_lim_avg value
cpu.COM:bw_lim_stdev_2_mean                    7.8557                       # standard deviation of bw_lim_avg value
cpu.COM:bw_lim_stdev_2_stdev                  16.6279                       # standard deviation of bw_lim_avg value
**Ignore: cpu.COM:bw_lim_stdev_2_TOT      174593.0000                       # standard deviation of bw_lim_avg value
cpu.COM:bw_lim_stdev_3_mean                    3.5400                       # standard deviation of bw_lim_avg value
cpu.COM:bw_lim_stdev_3_stdev                   9.3431                       # standard deviation of bw_lim_avg value
**Ignore: cpu.COM:bw_lim_stdev_3_TOT      174593.0000                       # standard deviation of bw_lim_avg value
cpu.COM:bw_limited                            3078053                       # number of insts not committed due to BW limits
cpu.COM:bw_limited_0                           728273                       # number of insts not committed due to BW limits
cpu.COM:bw_limited_1                           360168                       # number of insts not committed due to BW limits
cpu.COM:bw_limited_2                          1371557                       # number of insts not committed due to BW limits
cpu.COM:bw_limited_3                           618055                       # number of insts not committed due to BW limits
cpu.COM:committed_per_cycle.start_dist                         # Number of insts commited each cycle
cpu.COM:committed_per_cycle.samples            554662                      
cpu.COM:committed_per_cycle.min_value               0                      
                               0         1667     30.05%           
                               1        78886   1422.24%           
                               2        66829   1204.86%           
                               3        60782   1095.84%           
                               4        55126    993.87%           
                               5        40107    723.09%           
                               6        33758    608.62%           
                               7        26080    470.20%           
                               8       191427   3451.24%           
cpu.COM:committed_per_cycle.max_value               8                      
cpu.COM:committed_per_cycle.end_dist

cpu.COM:count                                 2726458                       # Number of instructions committed
cpu.COM:count_0                                837982                       # Number of instructions committed
cpu.COM:count_1                                295115                       # Number of instructions committed
cpu.COM:count_2                               1000001                       # Number of instructions committed
cpu.COM:count_3                                593360                       # Number of instructions committed
cpu.COM:loads                                  698784                       # Number of loads committed
cpu.COM:loads_0                                250749                       # Number of loads committed
cpu.COM:loads_1                                 73254                       # Number of loads committed
cpu.COM:loads_2                                255902                       # Number of loads committed
cpu.COM:loads_3                                118879                       # Number of loads committed
cpu.COM:membars                                     0                       # Number of memory barriers committed
cpu.COM:membars_0                                   0                       # Number of memory barriers committed
cpu.COM:membars_1                                   0                       # Number of memory barriers committed
cpu.COM:membars_2                                   0                       # Number of memory barriers committed
cpu.COM:membars_3                                   0                       # Number of memory barriers committed
cpu.COM:refs                                  1021369                       # Number of memory references committed
cpu.COM:refs_0                                 331697                       # Number of memory references committed
cpu.COM:refs_1                                 107338                       # Number of memory references committed
cpu.COM:refs_2                                 371156                       # Number of memory references committed
cpu.COM:refs_3                                 211178                       # Number of memory references committed
cpu.COM:stores                                 322585                       # Number of stores committed
cpu.COM:stores_0                                80948                       # Number of stores committed
cpu.COM:stores_1                                34084                       # Number of stores committed
cpu.COM:stores_2                               115254                       # Number of stores committed
cpu.COM:stores_3                                92299                       # Number of stores committed
cpu.COM:swp_count                                5995                       # Number of s/w prefetches committed
cpu.COM:swp_count_0                               524                       # Number of s/w prefetches committed
cpu.COM:swp_count_1                               725                       # Number of s/w prefetches committed
cpu.COM:swp_count_2                                16                       # Number of s/w prefetches committed
cpu.COM:swp_count_3                              4730                       # Number of s/w prefetches committed
cpu.DDQ:count                               167468371                       # cum count of instructions
cpu.DDQ:count_0                              50257445                       # cum count of instructions
cpu.DDQ:count_1                              29808507                       # cum count of instructions
cpu.DDQ:count_2                              49898955                       # cum count of instructions
cpu.DDQ:count_3                              37503464                       # cum count of instructions
cpu.DDQ:rate                                      253                       # average number of instructions
cpu.DDQ:rate_0                                     76                       # average number of instructions
cpu.DDQ:rate_1                                     45                       # average number of instructions
cpu.DDQ:rate_2                                     75                       # average number of instructions
cpu.DDQ:rate_3                                     57                       # average number of instructions
cpu.DIS:chain_creation.start_dist
     Inst has no outstanding IDEPS            0      0.00%            # Reason that chain head was created
      IDEP chain reached max depth            0      0.00%            # Reason that chain head was created
                    Inst is a load            0      0.00%            # Reason that chain head was created
  Chain has multiple chained IDEPS            0      0.00%            # Reason that chain head was created
cpu.DIS:chain_creation.end_dist
cpu.DIS:chain_head_frac                             0                       # fraction of insts that are chain heads
cpu.DIS:chain_head_frac_0                           0                       # fraction of insts that are chain heads
cpu.DIS:chain_head_frac_1                           0                       # fraction of insts that are chain heads
cpu.DIS:chain_head_frac_2                           0                       # fraction of insts that are chain heads
cpu.DIS:chain_head_frac_3                           0                       # fraction of insts that are chain heads
cpu.DIS:chain_heads                                 0                       # number insts that are chain heads
cpu.DIS:chain_heads_0                               0                       # number insts that are chain heads
cpu.DIS:chain_heads_1                               0                       # number insts that are chain heads
cpu.DIS:chain_heads_2                               0                       # number insts that are chain heads
cpu.DIS:chain_heads_3                               0                       # number insts that are chain heads
cpu.DIS:chains_insuf                                0                       # number of times thread had insuf chains
cpu.DIS:chains_insuf_0                              0                       # number of times thread had insuf chains
cpu.DIS:chains_insuf_1                              0                       # number of times thread had insuf chains
cpu.DIS:chains_insuf_2                              0                       # number of times thread had insuf chains
cpu.DIS:chains_insuf_3                              0                       # number of times thread had insuf chains
cpu.DIS:chains_insuf_rate                           0                       # rate that thread had insuf chains
cpu.DIS:chains_insuf_rate_0                         0                       # rate that thread had insuf chains
cpu.DIS:chains_insuf_rate_1                         0                       # rate that thread had insuf chains
cpu.DIS:chains_insuf_rate_2                         0                       # rate that thread had insuf chains
cpu.DIS:chains_insuf_rate_3                         0                       # rate that thread had insuf chains
cpu.DIS:count                                 3237103                       # cumulative count of dispatched insts
cpu.DIS:count_0                                992895                       # cumulative count of dispatched insts
cpu.DIS:count_1                                416850                       # cumulative count of dispatched insts
cpu.DIS:count_2                               1079703                       # cumulative count of dispatched insts
cpu.DIS:count_3                                747655                       # cumulative count of dispatched insts
cpu.DIS:insufficient_chains                         0                       # Number of instances where dispatch stopped
cpu.DIS:mod_n_stall_avg_free                 no value                       # avg free slots per cycle
cpu.DIS:mod_n_stall_avg_free_0               no value                       # avg free slots per cycle
cpu.DIS:mod_n_stall_avg_free_1               no value                       # avg free slots per cycle
cpu.DIS:mod_n_stall_avg_free_2               no value                       # avg free slots per cycle
cpu.DIS:mod_n_stall_avg_free_3               no value                       # avg free slots per cycle
cpu.DIS:mod_n_stall_frac                            0                       # avg stalls per cycle
cpu.DIS:mod_n_stall_frac_0                          0                       # avg stalls per cycle
cpu.DIS:mod_n_stall_frac_1                          0                       # avg stalls per cycle
cpu.DIS:mod_n_stall_frac_2                          0                       # avg stalls per cycle
cpu.DIS:mod_n_stall_frac_3                          0                       # avg stalls per cycle
cpu.DIS:mod_n_stall_free                            0                       # free slots when dispatch stalled due to mod-n
cpu.DIS:mod_n_stall_free_0                          0                       # free slots when dispatch stalled due to mod-n
cpu.DIS:mod_n_stall_free_1                          0                       # free slots when dispatch stalled due to mod-n
cpu.DIS:mod_n_stall_free_2                          0                       # free slots when dispatch stalled due to mod-n
cpu.DIS:mod_n_stall_free_3                          0                       # free slots when dispatch stalled due to mod-n
cpu.DIS:mod_n_stalls                                0                       # cycles where dispatch stalled due to mod-n
cpu.DIS:mod_n_stalls_0                              0                       # cycles where dispatch stalled due to mod-n
cpu.DIS:mod_n_stalls_1                              0                       # cycles where dispatch stalled due to mod-n
cpu.DIS:mod_n_stalls_2                              0                       # cycles where dispatch stalled due to mod-n
cpu.DIS:mod_n_stalls_3                              0                       # cycles where dispatch stalled due to mod-n
cpu.DIS:one_rdy_insts                               0                       # number of 2-op insts w/ one rdy op
cpu.DIS:one_rdy_insts_0                             0                       # number of 2-op insts w/ one rdy op
cpu.DIS:one_rdy_insts_1                             0                       # number of 2-op insts w/ one rdy op
cpu.DIS:one_rdy_insts_2                             0                       # number of 2-op insts w/ one rdy op
cpu.DIS:one_rdy_insts_3                             0                       # number of 2-op insts w/ one rdy op
cpu.DIS:one_rdy_ratio                        no value                       # fraction of 2-op insts w/ one ready op
cpu.DIS:one_rdy_ratio_0                      no value                       # fraction of 2-op insts w/ one ready op
cpu.DIS:one_rdy_ratio_1                      no value                       # fraction of 2-op insts w/ one ready op
cpu.DIS:one_rdy_ratio_2                      no value                       # fraction of 2-op insts w/ one ready op
cpu.DIS:one_rdy_ratio_3                      no value                       # fraction of 2-op insts w/ one ready op
cpu.DIS:op_count                              4448321                       # number of operations dispatched
cpu.DIS:op_count_0                            1388342                       # number of operations dispatched
cpu.DIS:op_count_1                             570006                       # number of operations dispatched
cpu.DIS:op_count_2                            1482578                       # number of operations dispatched
cpu.DIS:op_count_3                            1007395                       # number of operations dispatched
cpu.DIS:op_rate                              6.728401                       # dispatched operations per cycle
cpu.DIS:op_rate_0                            2.099966                       # dispatched operations per cycle
cpu.DIS:op_rate_1                            0.862175                       # dispatched operations per cycle
cpu.DIS:op_rate_2                            2.242504                       # dispatched operations per cycle
cpu.DIS:op_rate_3                            1.523756                       # dispatched operations per cycle
cpu.DIS:rate                                 4.896348                       # dispatched_insts per cycle
cpu.DIS:rate_0                               1.501824                       # dispatched_insts per cycle
cpu.DIS:rate_1                               0.630515                       # dispatched_insts per cycle
cpu.DIS:rate_2                               1.633127                       # dispatched_insts per cycle
cpu.DIS:rate_3                               1.130881                       # dispatched_insts per cycle
cpu.DIS:second_choice_clust                         0                       # Number of instructions dispatched to second-choice cluster
cpu.DIS:second_choice_stall                         0                       # Number of instructions stalled when first choice not available
cpu.DIS:serialize_stall_cycles                      0                       # count of cycles dispatch stalled for serializing inst
cpu.DIS:serialize_stall_cycles_0                    0                       # count of cycles dispatch stalled for serializing inst
cpu.DIS:serialize_stall_cycles_1                    0                       # count of cycles dispatch stalled for serializing inst
cpu.DIS:serialize_stall_cycles_2                    0                       # count of cycles dispatch stalled for serializing inst
cpu.DIS:serialize_stall_cycles_3                    0                       # count of cycles dispatch stalled for serializing inst
cpu.DIS:serializing_insts                           0                       # count of serializing insts dispatched
cpu.DIS:serializing_insts_0                         0                       # count of serializing insts dispatched
cpu.DIS:serializing_insts_1                         0                       # count of serializing insts dispatched
cpu.DIS:serializing_insts_2                         0                       # count of serializing insts dispatched
cpu.DIS:serializing_insts_3                         0                       # count of serializing insts dispatched
cpu.DIS:two_input_insts                             0                       # Number of two input instructions queued
cpu.DIS:two_input_insts_0                           0                       # Number of two input instructions queued
cpu.DIS:two_input_insts_1                           0                       # Number of two input instructions queued
cpu.DIS:two_input_insts_2                           0                       # Number of two input instructions queued
cpu.DIS:two_input_insts_3                           0                       # Number of two input instructions queued
cpu.DIS:two_input_ratio                             0                       # fraction of all insts having 2 inputs
cpu.DIS:two_input_ratio_0                           0                       # fraction of all insts having 2 inputs
cpu.DIS:two_input_ratio_1                           0                       # fraction of all insts having 2 inputs
cpu.DIS:two_input_ratio_2                           0                       # fraction of all insts having 2 inputs
cpu.DIS:two_input_ratio_3                           0                       # fraction of all insts having 2 inputs
cpu.FETCH:branch_count                         633279                       # Number of branches fetched
cpu.FETCH:branch_count_0                       208316                       # Number of branches fetched
cpu.FETCH:branch_count_1                        96365                       # Number of branches fetched
cpu.FETCH:branch_count_2                       160233                       # Number of branches fetched
cpu.FETCH:branch_count_3                       168365                       # Number of branches fetched
cpu.FETCH:branch_rate                        0.957879                       # Number of branch fetches per cycle
cpu.FETCH:branch_rate_0                      0.315093                       # Number of branch fetches per cycle
cpu.FETCH:branch_rate_1                      0.145759                       # Number of branch fetches per cycle
cpu.FETCH:branch_rate_2                      0.242364                       # Number of branch fetches per cycle
cpu.FETCH:branch_rate_3                      0.254664                       # Number of branch fetches per cycle
cpu.FETCH:chance_pct_0                       0.304918                       # Percentage of all fetch chances
cpu.FETCH:chance_pct_1                       0.157510                       # Percentage of all fetch chances
cpu.FETCH:chance_pct_2                       0.282923                       # Percentage of all fetch chances
cpu.FETCH:chance_pct_3                       0.254649                       # Percentage of all fetch chances
cpu.FETCH:chances                              629192                       # Number of fetch opportunities
cpu.FETCH:chances_0                            191852                       # Number of fetch opportunities
cpu.FETCH:chances_1                             99104                       # Number of fetch opportunities
cpu.FETCH:chances_2                            178013                       # Number of fetch opportunities
cpu.FETCH:chances_3                            160223                       # Number of fetch opportunities
cpu.FETCH:choice                               629192                       # Number of times we fetched from our first choice
cpu.FETCH:choice.start_dist
                               0       629192    100.00%            # Number of times we fetched from our first choice
                               1            0      0.00%            # Number of times we fetched from our first choice
                               2            0      0.00%            # Number of times we fetched from our first choice
                               3            0      0.00%            # Number of times we fetched from our first choice
cpu.FETCH:choice.end_dist
cpu.FETCH:count                               4820408                       # Number of instructions fetched
cpu.FETCH:count_0                             1417424                       # Number of instructions fetched
cpu.FETCH:count_1                              771938                       # Number of instructions fetched
cpu.FETCH:count_2                             1380469                       # Number of instructions fetched
cpu.FETCH:count_3                             1250577                       # Number of instructions fetched
cpu.FETCH:decisions                            629192                       # number of times the fetch stage chose between threads
cpu.FETCH:idle_cycles                           31934                       # number of cycles where fetch stage was idle
cpu.FETCH:idle_icache_blocked_cycles                0                       # number of cycles where fetch was idle due to icache blocked
cpu.FETCH:idle_rate                              4.83                       # percent of cycles fetch stage was idle
cpu.FETCH:prio_changes                              0                       # Number of times priorities were changed
cpu.FETCH:prio_changes_0                            0                       # Number of times priorities were changed
cpu.FETCH:prio_changes_1                            0                       # Number of times priorities were changed
cpu.FETCH:prio_changes_2                            0                       # Number of times priorities were changed
cpu.FETCH:prio_changes_3                            0                       # Number of times priorities were changed
cpu.FETCH:rate                               7.291209                       # Number of inst fetches per cycle
cpu.FETCH:rate_0                             2.143954                       # Number of inst fetches per cycle
cpu.FETCH:rate_1                             1.167611                       # Number of inst fetches per cycle
cpu.FETCH:rate_2                             2.088057                       # Number of inst fetches per cycle
cpu.FETCH:rate_3                             1.891586                       # Number of inst fetches per cycle
cpu.FETCH:rate_dist.start_dist                                 # Number of instructions fetched each cycle (Total)
cpu.FETCH:rate_dist.samples                    629192                      
cpu.FETCH:rate_dist.min_value                       0                      
                               0         1311     20.84%           
                               1         2368     37.64%           
                               2         2605     41.40%           
                               3         3372     53.59%           
                               4         6353    100.97%           
                               5         8926    141.86%           
                               6        45149    717.57%           
                               7        11086    176.19%           
                               8       548022   8709.93%           
cpu.FETCH:rate_dist.max_value                       8                      
cpu.FETCH:rate_dist.end_dist

cpu.FETCH:rate_dist_0.start_dist                               # Number of instructions fetched each cycle (Thread 0)
cpu.FETCH:rate_dist_0.samples                  191852                      
cpu.FETCH:rate_dist_0.min_value                     0                      
                               0          801     41.75%           
                               1         1111     57.91%           
                               2         1167     60.83%           
                               3         1339     69.79%           
                               4         2069    107.84%           
                               5         3792    197.65%           
                               6        33022   1721.22%           
                               7         3814    198.80%           
                               8       144737   7544.20%           
cpu.FETCH:rate_dist_0.max_value                     8                      
cpu.FETCH:rate_dist_0.end_dist

cpu.FETCH:rate_dist_1.start_dist                               # Number of instructions fetched each cycle (Thread 1)
cpu.FETCH:rate_dist_1.samples                   99104                      
cpu.FETCH:rate_dist_1.min_value                     0                      
                               0          343     34.61%           
                               1          270     27.24%           
                               2          273     27.55%           
                               3          456     46.01%           
                               4         1138    114.83%           
                               5          801     80.82%           
                               6         1595    160.94%           
                               7         2197    221.69%           
                               8        92031   9286.31%           
cpu.FETCH:rate_dist_1.max_value                     8                      
cpu.FETCH:rate_dist_1.end_dist

cpu.FETCH:rate_dist_2.start_dist                               # Number of instructions fetched each cycle (Thread 2)
cpu.FETCH:rate_dist_2.samples                  178013                      
cpu.FETCH:rate_dist_2.min_value                     1                      
                               0            0      0.00%           
                               1          570     32.02%           
                               2          696     39.10%           
                               3         1014     56.96%           
                               4         1897    106.57%           
                               5         2701    151.73%           
                               6         6570    369.07%           
                               7         1568     88.08%           
                               8       162997   9156.47%           
cpu.FETCH:rate_dist_2.max_value                     8                      
cpu.FETCH:rate_dist_2.end_dist

cpu.FETCH:rate_dist_3.start_dist                               # Number of instructions fetched each cycle (Thread 3)
cpu.FETCH:rate_dist_3.samples                  160223                      
cpu.FETCH:rate_dist_3.min_value                     0                      
                               0          167     10.42%           
                               1          417     26.03%           
                               2          469     29.27%           
                               3          563     35.14%           
                               4         1249     77.95%           
                               5         1632    101.86%           
                               6         3962    247.28%           
                               7         3507    218.88%           
                               8       148257   9253.17%           
cpu.FETCH:rate_dist_3.max_value                     8                      
cpu.FETCH:rate_dist_3.end_dist

cpu.IFQ:count                                32466291                       # cumulative IFQ occupancy
cpu.IFQ:full_count                             343467                       # cumulative IFQ full count
cpu.IFQ:full_count_0                           111011                       # cumulative IFQ full count
cpu.IFQ:full_count_1                            65841                       # cumulative IFQ full count
cpu.IFQ:full_count_2                           113166                       # cumulative IFQ full count
cpu.IFQ:full_count_3                            53449                       # cumulative IFQ full count
cpu.IFQ:full_rate                           51.951822                       # fraction of time (cycle's) IFQ was full
cpu.IFQ:full_rate_0                         16.791202                       # fraction of time (cycle's) IFQ was full
cpu.IFQ:full_rate_1                          9.958919                       # fraction of time (cycle's) IFQ was full
cpu.IFQ:full_rate_2                         17.117161                       # fraction of time (cycle's) IFQ was full
cpu.IFQ:full_rate_3                          8.084541                       # fraction of time (cycle's) IFQ was full
cpu.IFQ:latency                             10.029428                       # avg IFQ occupant latency (cycle's)
cpu.IFQ:latency_0                           32.698615                       # avg IFQ occupant latency (cycle's)
cpu.IFQ:latency_1                           77.884829                       # avg IFQ occupant latency (cycle's)
cpu.IFQ:latency_2                           30.069650                       # avg IFQ occupant latency (cycle's)
cpu.IFQ:latency_3                           43.424161                       # avg IFQ occupant latency (cycle's)
cpu.IFQ:occupancy                           49.107570                       # avg IFQ occupancy (inst's)
cpu.IFQ:qfull_iq_occ                         12675148                       # Number of insts in IQ when fetch-queue full
cpu.IFQ:qfull_iq_occ_0                        3742527                       # Number of insts in IQ when fetch-queue full
cpu.IFQ:qfull_iq_occ_1                        3143369                       # Number of insts in IQ when fetch-queue full
cpu.IFQ:qfull_iq_occ_2                        3581752                       # Number of insts in IQ when fetch-queue full
cpu.IFQ:qfull_iq_occ_3                        2207500                       # Number of insts in IQ when fetch-queue full
cpu.IFQ:qfull_iq_occ_dist_0.start_dist                         # Number of insts in IQ when fetch-queue full
cpu.IFQ:qfull_iq_occ_dist_0.samples            277040                      
cpu.IFQ:qfull_iq_occ_dist_0.min_value               0                      
                               0        99353   3586.23%           
                              10       119207   4302.88%           
                              20        44105   1592.01%           
                              30         9520    343.63%           
                              40         1914     69.09%           
                              50         1514     54.65%           
                              60         1427     51.51%           
cpu.IFQ:qfull_iq_occ_dist_0.max_value              64                      
cpu.IFQ:qfull_iq_occ_dist_0.end_dist

cpu.IFQ:qfull_iq_occ_dist_1.start_dist                         # Number of insts in IQ when fetch-queue full
cpu.IFQ:qfull_iq_occ_dist_1.samples            277040                      
cpu.IFQ:qfull_iq_occ_dist_1.min_value               0                      
                               0       135614   4895.11%           
                              10        90834   3278.73%           
                              20        34199   1234.44%           
                              30         8943    322.81%           
                              40         3834    138.39%           
                              50         2333     84.21%           
                              60         1283     46.31%           
cpu.IFQ:qfull_iq_occ_dist_1.max_value              64                      
cpu.IFQ:qfull_iq_occ_dist_1.end_dist

cpu.IFQ:qfull_iq_occ_dist_2.start_dist                         # Number of insts in IQ when fetch-queue full
cpu.IFQ:qfull_iq_occ_dist_2.samples            277040                      
cpu.IFQ:qfull_iq_occ_dist_2.min_value               0                      
                               0        97553   3521.26%           
                              10       129831   4686.36%           
                              20        42143   1521.19%           
                              30         7070    255.20%           
                              40          206      7.44%           
                              50          192      6.93%           
                              60           45      1.62%           
cpu.IFQ:qfull_iq_occ_dist_2.max_value              64                      
cpu.IFQ:qfull_iq_occ_dist_2.end_dist

cpu.IFQ:qfull_iq_occ_dist_3.start_dist                         # Number of insts in IQ when fetch-queue full
cpu.IFQ:qfull_iq_occ_dist_3.samples            277040                      
cpu.IFQ:qfull_iq_occ_dist_3.min_value               0                      
                               0       160458   5791.87%           
                              10        95394   3443.33%           
                              20        20119    726.21%           
                              30          843     30.43%           
                              40           93      3.36%           
                              50          125      4.51%           
                              60            8      0.29%           
cpu.IFQ:qfull_iq_occ_dist_3.max_value              64                      
cpu.IFQ:qfull_iq_occ_dist_3.end_dist

cpu.IFQ:qfull_rob_occ                        29121032                       # Number of insts in ROB when fetch-queue full
cpu.IFQ:qfull_rob_occ_0                       7875642                       # Number of insts in ROB when fetch-queue full
cpu.IFQ:qfull_rob_occ_1                       5535166                       # Number of insts in ROB when fetch-queue full
cpu.IFQ:qfull_rob_occ_2                      10329357                       # Number of insts in ROB when fetch-queue full
cpu.IFQ:qfull_rob_occ_3                       5380867                       # Number of insts in ROB when fetch-queue full
cpu.IFQ:qfull_rob_occ_dist_0.start_dist                        # Number of insts in ROB when fetch-queue full
cpu.IFQ:qfull_rob_occ_dist_0.samples           277040                      
cpu.IFQ:qfull_rob_occ_dist_0.min_value              0                      
                               0        38557   1391.75%           
                              10        42715   1541.84%           
                              20        87063   3142.61%           
                              30        52673   1901.28%           
                              40        29549   1066.60%           
                              50        12923    466.47%           
                              60         5341    192.79%           
                              70         2173     78.44%           
                              80         1346     48.59%           
                              90         1044     37.68%           
                             100          778     28.08%           
                             110         1015     36.64%           
                             120          163      5.88%           
                             130          113      4.08%           
                             140          149      5.38%           
                             150          161      5.81%           
                             160          112      4.04%           
                             170           77      2.78%           
                             180          720     25.99%           
                             190          368     13.28%           
                             200            0      0.00%           
cpu.IFQ:qfull_rob_occ_dist_0.max_value            196                      
cpu.IFQ:qfull_rob_occ_dist_0.end_dist

cpu.IFQ:qfull_rob_occ_dist_1.start_dist                        # Number of insts in ROB when fetch-queue full
cpu.IFQ:qfull_rob_occ_dist_1.samples           277040                      
cpu.IFQ:qfull_rob_occ_dist_1.min_value              0                      
                               0        93113   3360.99%           
                              10        43020   1552.84%           
                              20        80305   2898.68%           
                              30        33709   1216.76%           
                              40        10762    388.46%           
                              50         6681    241.16%           
                              60         3809    137.49%           
                              70         2454     88.58%           
                              80          574     20.72%           
                              90          482     17.40%           
                             100          270      9.75%           
                             110          295     10.65%           
                             120          249      8.99%           
                             130          167      6.03%           
                             140          363     13.10%           
                             150          194      7.00%           
                             160          352     12.71%           
                             170          128      4.62%           
                             180            6      0.22%           
                             190          107      3.86%           
                             200            0      0.00%           
cpu.IFQ:qfull_rob_occ_dist_1.max_value            195                      
cpu.IFQ:qfull_rob_occ_dist_1.end_dist

cpu.IFQ:qfull_rob_occ_dist_2.start_dist                        # Number of insts in ROB when fetch-queue full
cpu.IFQ:qfull_rob_occ_dist_2.samples           277040                      
cpu.IFQ:qfull_rob_occ_dist_2.min_value              0                      
                               0        30711   1108.54%           
                              10        37565   1355.94%           
                              20        85928   3101.65%           
                              30        51919   1874.06%           
                              40        21957    792.56%           
                              50        11355    409.87%           
                              60         6536    235.92%           
                              70         3149    113.67%           
                              80         3195    115.33%           
                              90         2554     92.19%           
                             100         3330    120.20%           
                             110         2845    102.69%           
                             120         2522     91.03%           
                             130         3015    108.83%           
                             140         3341    120.60%           
                             150         2299     82.98%           
                             160         1885     68.04%           
                             170         1444     52.12%           
                             180          645     23.28%           
                             190          845     30.50%           
                             200            0      0.00%           
cpu.IFQ:qfull_rob_occ_dist_2.max_value            196                      
cpu.IFQ:qfull_rob_occ_dist_2.end_dist

cpu.IFQ:qfull_rob_occ_dist_3.start_dist                        # Number of insts in ROB when fetch-queue full
cpu.IFQ:qfull_rob_occ_dist_3.samples           277040                      
cpu.IFQ:qfull_rob_occ_dist_3.min_value              0                      
                               0        90405   3263.25%           
                              10        46061   1662.61%           
                              20        80997   2923.66%           
                              30        34911   1260.14%           
                              40        11833    427.12%           
                              50         5738    207.12%           
                              60         3367    121.53%           
                              70         1409     50.86%           
                              80          814     29.38%           
                              90          217      7.83%           
                             100          312     11.26%           
                             110           80      2.89%           
                             120          153      5.52%           
                             130          116      4.19%           
                             140           73      2.63%           
                             150           57      2.06%           
                             160           81      2.92%           
                             170           27      0.97%           
                             180          282     10.18%           
                             190          107      3.86%           
                             200            0      0.00%           
cpu.IFQ:qfull_rob_occ_dist_3.max_value            196                      
cpu.IFQ:qfull_rob_occ_dist_3.end_dist

cpu.IQ:cap_events                                   0                       # number of cycles where IQ cap was active
cpu.IQ:cap_events_0                                 0                       # number of cycles where IQ cap was active
cpu.IQ:cap_events_1                                 0                       # number of cycles where IQ cap was active
cpu.IQ:cap_events_2                                 0                       # number of cycles where IQ cap was active
cpu.IQ:cap_events_3                                 0                       # number of cycles where IQ cap was active
cpu.IQ:cap_inst                                     0                       # number of instructions held up by IQ cap
cpu.IQ:cap_inst_0                                   0                       # number of instructions held up by IQ cap
cpu.IQ:cap_inst_1                                   0                       # number of instructions held up by IQ cap
cpu.IQ:cap_inst_2                                   0                       # number of instructions held up by IQ cap
cpu.IQ:cap_inst_3                                   0                       # number of instructions held up by IQ cap
cpu.IQ:residence:(null).start_dist                             # cycles from dispatch to issue
cpu.IQ:residence:(null).samples                     0                      
cpu.IQ:residence:(null).min_value                   0                      
                               0            0                      
                               2            0                      
                               4            0                      
                               6            0                      
                               8            0                      
                              10            0                      
                              12            0                      
                              14            0                      
                              16            0                      
                              18            0                      
                              20            0                      
                              22            0                      
                              24            0                      
                              26            0                      
                              28            0                      
                              30            0                      
                              32            0                      
                              34            0                      
                              36            0                      
                              38            0                      
                              40            0                      
                              42            0                      
                              44            0                      
                              46            0                      
                              48            0                      
                              50            0                      
                              52            0                      
                              54            0                      
                              56            0                      
                              58            0                      
                              60            0                      
                              62            0                      
                              64            0                      
                              66            0                      
                              68            0                      
                              70            0                      
                              72            0                      
                              74            0                      
                              76            0                      
                              78            0                      
                              80            0                      
                              82            0                      
                              84            0                      
                              86            0                      
                              88            0                      
                              90            0                      
                              92            0                      
                              94            0                      
                              96            0                      
                              98            0                      
cpu.IQ:residence:(null).max_value                   0                      
cpu.IQ:residence:(null).end_dist

cpu.IQ:residence:IntAlu.start_dist                             # cycles from dispatch to issue
cpu.IQ:residence:IntAlu.samples               1861890                      
cpu.IQ:residence:IntAlu.min_value                   1                      
                               0       165034    886.38%    886.38%
                               2       226418   1216.07%   2102.44%
                               4       208004   1117.17%   3219.61%
                               6       267841   1438.54%   4658.15%
                               8       252040   1353.68%   6011.83%
                              10       226517   1216.60%   7228.43%
                              12       160439    861.70%   8090.13%
                              14       122656    658.77%   8748.90%
                              16        84199    452.22%   9201.12%
                              18        54040    290.24%   9491.37%
                              20        30495    163.79%   9655.15%
                              22        15842     85.09%   9740.24%
                              24         7607     40.86%   9781.09%
                              26         3580     19.23%   9800.32%
                              28         2093     11.24%   9811.56%
                              30         1400      7.52%   9819.08%
                              32          941      5.05%   9824.14%
                              34          731      3.93%   9828.06%
                              36          617      3.31%   9831.38%
                              38          486      2.61%   9833.99%
                              40          456      2.45%   9836.44%
                              42          889      4.77%   9841.21%
                              44          576      3.09%   9844.30%
                              46          369      1.98%   9846.29%
                              48          269      1.44%   9847.73%
                              50          221      1.19%   9848.92%
                              52          230      1.24%   9850.15%
                              54          308      1.65%   9851.81%
                              56          238      1.28%   9853.08%
                              58          231      1.24%   9854.33%
                              60          267      1.43%   9855.76%
                              62          204      1.10%   9856.86%
                              64          263      1.41%   9858.27%
                              66          231      1.24%   9859.51%
                              68          249      1.34%   9860.85%
                              70          231      1.24%   9862.09%
                              72          186      1.00%   9863.09%
                              74          203      1.09%   9864.18%
                              76          198      1.06%   9865.24%
                              78          205      1.10%   9866.34%
                              80          209      1.12%   9867.46%
                              82          222      1.19%   9868.65%
                              84          223      1.20%   9869.85%
                              86          206      1.11%   9870.96%
                              88          253      1.36%   9872.32%
                              90          200      1.07%   9873.39%
                              92          254      1.36%   9874.76%
                              94          249      1.34%   9876.09%
                              96          286      1.54%   9877.63%
                              98          321      1.72%   9879.35%
cpu.IQ:residence:IntAlu.overflows               22463                      
cpu.IQ:residence:IntAlu.max_value                1150                      
cpu.IQ:residence:IntAlu.end_dist

cpu.IQ:residence:IntMult.start_dist                            # cycles from dispatch to issue
cpu.IQ:residence:IntMult.samples                  705                      
cpu.IQ:residence:IntMult.min_value                  1                      
                               0           58    822.70%    822.70%
                               2           98   1390.07%   2212.77%
                               4           73   1035.46%   3248.23%
                               6          165   2340.43%   5588.65%
                               8          106   1503.55%   7092.20%
                              10           75   1063.83%   8156.03%
                              12           58    822.70%   8978.72%
                              14           36    510.64%   9489.36%
                              16           10    141.84%   9631.21%
                              18            1     14.18%   9645.39%
                              20            2     28.37%   9673.76%
                              22            2     28.37%   9702.13%
                              24            3     42.55%   9744.68%
                              26            2     28.37%   9773.05%
                              28            0      0.00%   9773.05%
                              30            1     14.18%   9787.23%
                              32            0      0.00%   9787.23%
                              34            0      0.00%   9787.23%
                              36            0      0.00%   9787.23%
                              38            0      0.00%   9787.23%
                              40            0      0.00%   9787.23%
                              42            0      0.00%   9787.23%
                              44            0      0.00%   9787.23%
                              46            0      0.00%   9787.23%
                              48            0      0.00%   9787.23%
                              50            0      0.00%   9787.23%
                              52            0      0.00%   9787.23%
                              54            0      0.00%   9787.23%
                              56            0      0.00%   9787.23%
                              58            0      0.00%   9787.23%
                              60            0      0.00%   9787.23%
                              62            0      0.00%   9787.23%
                              64            0      0.00%   9787.23%
                              66            0      0.00%   9787.23%
                              68            0      0.00%   9787.23%
                              70            0      0.00%   9787.23%
                              72            0      0.00%   9787.23%
                              74            0      0.00%   9787.23%
                              76            0      0.00%   9787.23%
                              78            0      0.00%   9787.23%
                              80            0      0.00%   9787.23%
                              82            0      0.00%   9787.23%
                              84            0      0.00%   9787.23%
                              86            1     14.18%   9801.42%
                              88            0      0.00%   9801.42%
                              90            1     14.18%   9815.60%
                              92            0      0.00%   9815.60%
                              94            0      0.00%   9815.60%
                              96            1     14.18%   9829.79%
                              98            1     14.18%   9843.97%
cpu.IQ:residence:IntMult.overflows                 11                      
cpu.IQ:residence:IntMult.max_value                138                      
cpu.IQ:residence:IntMult.end_dist

cpu.IQ:residence:IntDiv.start_dist                             # cycles from dispatch to issue
cpu.IQ:residence:IntDiv.samples                     0                      
cpu.IQ:residence:IntDiv.min_value                   0                      
                               0            0                      
                               2            0                      
                               4            0                      
                               6            0                      
                               8            0                      
                              10            0                      
                              12            0                      
                              14            0                      
                              16            0                      
                              18            0                      
                              20            0                      
                              22            0                      
                              24            0                      
                              26            0                      
                              28            0                      
                              30            0                      
                              32            0                      
                              34            0                      
                              36            0                      
                              38            0                      
                              40            0                      
                              42            0                      
                              44            0                      
                              46            0                      
                              48            0                      
                              50            0                      
                              52            0                      
                              54            0                      
                              56            0                      
                              58            0                      
                              60            0                      
                              62            0                      
                              64            0                      
                              66            0                      
                              68            0                      
                              70            0                      
                              72            0                      
                              74            0                      
                              76            0                      
                              78            0                      
                              80            0                      
                              82            0                      
                              84            0                      
                              86            0                      
                              88            0                      
                              90            0                      
                              92            0                      
                              94            0                      
                              96            0                      
                              98            0                      
cpu.IQ:residence:IntDiv.max_value                   0                      
cpu.IQ:residence:IntDiv.end_dist

cpu.IQ:residence:FloatAdd.start_dist                           # cycles from dispatch to issue
cpu.IQ:residence:FloatAdd.samples                 110                      
cpu.IQ:residence:FloatAdd.min_value                 1                      
                               0            7    636.36%    636.36%
                               2           17   1545.45%   2181.82%
                               4            9    818.18%   3000.00%
                               6            7    636.36%   3636.36%
                               8           13   1181.82%   4818.18%
                              10           16   1454.55%   6272.73%
                              12           10    909.09%   7181.82%
                              14            9    818.18%   8000.00%
                              16            8    727.27%   8727.27%
                              18            5    454.55%   9181.82%
                              20            4    363.64%   9545.45%
                              22            1     90.91%   9636.36%
                              24            0      0.00%   9636.36%
                              26            0      0.00%   9636.36%
                              28            1     90.91%   9727.27%
                              30            0      0.00%   9727.27%
                              32            0      0.00%   9727.27%
                              34            1     90.91%   9818.18%
                              36            0      0.00%   9818.18%
                              38            0      0.00%   9818.18%
                              40            0      0.00%   9818.18%
                              42            0      0.00%   9818.18%
                              44            0      0.00%   9818.18%
                              46            0      0.00%   9818.18%
                              48            0      0.00%   9818.18%
                              50            0      0.00%   9818.18%
                              52            0      0.00%   9818.18%
                              54            0      0.00%   9818.18%
                              56            0      0.00%   9818.18%
                              58            0      0.00%   9818.18%
                              60            0      0.00%   9818.18%
                              62            0      0.00%   9818.18%
                              64            0      0.00%   9818.18%
                              66            0      0.00%   9818.18%
                              68            0      0.00%   9818.18%
                              70            0      0.00%   9818.18%
                              72            0      0.00%   9818.18%
                              74            0      0.00%   9818.18%
                              76            0      0.00%   9818.18%
                              78            0      0.00%   9818.18%
                              80            0      0.00%   9818.18%
                              82            0      0.00%   9818.18%
                              84            0      0.00%   9818.18%
                              86            0      0.00%   9818.18%
                              88            0      0.00%   9818.18%
                              90            0      0.00%   9818.18%
                              92            0      0.00%   9818.18%
                              94            0      0.00%   9818.18%
                              96            0      0.00%   9818.18%
                              98            0      0.00%   9818.18%
cpu.IQ:residence:FloatAdd.overflows                 2                      
cpu.IQ:residence:FloatAdd.max_value               149                      
cpu.IQ:residence:FloatAdd.end_dist

cpu.IQ:residence:FloatCmp.start_dist                           # cycles from dispatch to issue
cpu.IQ:residence:FloatCmp.samples                   7                      
cpu.IQ:residence:FloatCmp.min_value                 7                      
                               0            0      0.00%      0.00%
                               2            0      0.00%      0.00%
                               4            0      0.00%      0.00%
                               6            1   1428.57%   1428.57%
                               8            2   2857.14%   4285.71%
                              10            2   2857.14%   7142.86%
                              12            0      0.00%   7142.86%
                              14            0      0.00%   7142.86%
                              16            0      0.00%   7142.86%
                              18            0      0.00%   7142.86%
                              20            1   1428.57%   8571.43%
                              22            0      0.00%   8571.43%
                              24            0      0.00%   8571.43%
                              26            0      0.00%   8571.43%
                              28            0      0.00%   8571.43%
                              30            0      0.00%   8571.43%
                              32            0      0.00%   8571.43%
                              34            0      0.00%   8571.43%
                              36            0      0.00%   8571.43%
                              38            0      0.00%   8571.43%
                              40            0      0.00%   8571.43%
                              42            0      0.00%   8571.43%
                              44            0      0.00%   8571.43%
                              46            0      0.00%   8571.43%
                              48            0      0.00%   8571.43%
                              50            0      0.00%   8571.43%
                              52            0      0.00%   8571.43%
                              54            0      0.00%   8571.43%
                              56            0      0.00%   8571.43%
                              58            0      0.00%   8571.43%
                              60            0      0.00%   8571.43%
                              62            0      0.00%   8571.43%
                              64            0      0.00%   8571.43%
                              66            0      0.00%   8571.43%
                              68            0      0.00%   8571.43%
                              70            0      0.00%   8571.43%
                              72            0      0.00%   8571.43%
                              74            0      0.00%   8571.43%
                              76            0      0.00%   8571.43%
                              78            0      0.00%   8571.43%
                              80            0      0.00%   8571.43%
                              82            0      0.00%   8571.43%
                              84            0      0.00%   8571.43%
                              86            0      0.00%   8571.43%
                              88            0      0.00%   8571.43%
                              90            0      0.00%   8571.43%
                              92            0      0.00%   8571.43%
                              94            0      0.00%   8571.43%
                              96            0      0.00%   8571.43%
                              98            0      0.00%   8571.43%
cpu.IQ:residence:FloatCmp.overflows                 1                      
cpu.IQ:residence:FloatCmp.max_value               147                      
cpu.IQ:residence:FloatCmp.end_dist

cpu.IQ:residence:FloatCvt.start_dist                           # cycles from dispatch to issue
cpu.IQ:residence:FloatCvt.samples                  93                      
cpu.IQ:residence:FloatCvt.min_value                 1                      
                               0           15   1612.90%   1612.90%
                               2            7    752.69%   2365.59%
                               4           17   1827.96%   4193.55%
                               6           11   1182.80%   5376.34%
                               8           12   1290.32%   6666.67%
                              10            8    860.22%   7526.88%
                              12            9    967.74%   8494.62%
                              14            4    430.11%   8924.73%
                              16            2    215.05%   9139.78%
                              18            2    215.05%   9354.84%
                              20            2    215.05%   9569.89%
                              22            1    107.53%   9677.42%
                              24            1    107.53%   9784.95%
                              26            0      0.00%   9784.95%
                              28            0      0.00%   9784.95%
                              30            1    107.53%   9892.47%
                              32            0      0.00%   9892.47%
                              34            0      0.00%   9892.47%
                              36            1    107.53%  10000.00%
                              38            0      0.00%  10000.00%
                              40            0      0.00%  10000.00%
                              42            0      0.00%  10000.00%
                              44            0      0.00%  10000.00%
                              46            0      0.00%  10000.00%
                              48            0      0.00%  10000.00%
                              50            0      0.00%  10000.00%
                              52            0      0.00%  10000.00%
                              54            0      0.00%  10000.00%
                              56            0      0.00%  10000.00%
                              58            0      0.00%  10000.00%
                              60            0      0.00%  10000.00%
                              62            0      0.00%  10000.00%
                              64            0      0.00%  10000.00%
                              66            0      0.00%  10000.00%
                              68            0      0.00%  10000.00%
                              70            0      0.00%  10000.00%
                              72            0      0.00%  10000.00%
                              74            0      0.00%  10000.00%
                              76            0      0.00%  10000.00%
                              78            0      0.00%  10000.00%
                              80            0      0.00%  10000.00%
                              82            0      0.00%  10000.00%
                              84            0      0.00%  10000.00%
                              86            0      0.00%  10000.00%
                              88            0      0.00%  10000.00%
                              90            0      0.00%  10000.00%
                              92            0      0.00%  10000.00%
                              94            0      0.00%  10000.00%
                              96            0      0.00%  10000.00%
                              98            0      0.00%  10000.00%
cpu.IQ:residence:FloatCvt.max_value                37                      
cpu.IQ:residence:FloatCvt.end_dist

cpu.IQ:residence:FloatMult.start_dist                          # cycles from dispatch to issue
cpu.IQ:residence:FloatMult.samples                  6                      
cpu.IQ:residence:FloatMult.min_value                6                      
                               0            0      0.00%      0.00%
                               2            0      0.00%      0.00%
                               4            0      0.00%      0.00%
                               6            2   3333.33%   3333.33%
                               8            2   3333.33%   6666.67%
                              10            0      0.00%   6666.67%
                              12            0      0.00%   6666.67%
                              14            0      0.00%   6666.67%
                              16            1   1666.67%   8333.33%
                              18            0      0.00%   8333.33%
                              20            0      0.00%   8333.33%
                              22            0      0.00%   8333.33%
                              24            0      0.00%   8333.33%
                              26            0      0.00%   8333.33%
                              28            0      0.00%   8333.33%
                              30            0      0.00%   8333.33%
                              32            0      0.00%   8333.33%
                              34            0      0.00%   8333.33%
                              36            0      0.00%   8333.33%
                              38            0      0.00%   8333.33%
                              40            0      0.00%   8333.33%
                              42            0      0.00%   8333.33%
                              44            0      0.00%   8333.33%
                              46            0      0.00%   8333.33%
                              48            0      0.00%   8333.33%
                              50            0      0.00%   8333.33%
                              52            0      0.00%   8333.33%
                              54            0      0.00%   8333.33%
                              56            0      0.00%   8333.33%
                              58            0      0.00%   8333.33%
                              60            0      0.00%   8333.33%
                              62            0      0.00%   8333.33%
                              64            0      0.00%   8333.33%
                              66            0      0.00%   8333.33%
                              68            0      0.00%   8333.33%
                              70            0      0.00%   8333.33%
                              72            0      0.00%   8333.33%
                              74            0      0.00%   8333.33%
                              76            0      0.00%   8333.33%
                              78            0      0.00%   8333.33%
                              80            0      0.00%   8333.33%
                              82            0      0.00%   8333.33%
                              84            0      0.00%   8333.33%
                              86            0      0.00%   8333.33%
                              88            0      0.00%   8333.33%
                              90            0      0.00%   8333.33%
                              92            0      0.00%   8333.33%
                              94            0      0.00%   8333.33%
                              96            0      0.00%   8333.33%
                              98            0      0.00%   8333.33%
cpu.IQ:residence:FloatMult.overflows                1                      
cpu.IQ:residence:FloatMult.max_value              144                      
cpu.IQ:residence:FloatMult.end_dist

cpu.IQ:residence:FloatDiv.start_dist                           # cycles from dispatch to issue
cpu.IQ:residence:FloatDiv.samples                  11                      
cpu.IQ:residence:FloatDiv.min_value                 2                      
                               0            0      0.00%      0.00%
                               2            2   1818.18%   1818.18%
                               4            2   1818.18%   3636.36%
                               6            2   1818.18%   5454.55%
                               8            1    909.09%   6363.64%
                              10            2   1818.18%   8181.82%
                              12            0      0.00%   8181.82%
                              14            0      0.00%   8181.82%
                              16            1    909.09%   9090.91%
                              18            0      0.00%   9090.91%
                              20            0      0.00%   9090.91%
                              22            1    909.09%  10000.00%
                              24            0      0.00%  10000.00%
                              26            0      0.00%  10000.00%
                              28            0      0.00%  10000.00%
                              30            0      0.00%  10000.00%
                              32            0      0.00%  10000.00%
                              34            0      0.00%  10000.00%
                              36            0      0.00%  10000.00%
                              38            0      0.00%  10000.00%
                              40            0      0.00%  10000.00%
                              42            0      0.00%  10000.00%
                              44            0      0.00%  10000.00%
                              46            0      0.00%  10000.00%
                              48            0      0.00%  10000.00%
                              50            0      0.00%  10000.00%
                              52            0      0.00%  10000.00%
                              54            0      0.00%  10000.00%
                              56            0      0.00%  10000.00%
                              58            0      0.00%  10000.00%
                              60            0      0.00%  10000.00%
                              62            0      0.00%  10000.00%
                              64            0      0.00%  10000.00%
                              66            0      0.00%  10000.00%
                              68            0      0.00%  10000.00%
                              70            0      0.00%  10000.00%
                              72            0      0.00%  10000.00%
                              74            0      0.00%  10000.00%
                              76            0      0.00%  10000.00%
                              78            0      0.00%  10000.00%
                              80            0      0.00%  10000.00%
[...]
cpu.l2.read_mshr_misses_3                        3421                       # number of read MSHR misses
cpu.l2.replacements                                 0                       # number of replacements
cpu.l2.replacements_0                               0                       # number of replacements
cpu.l2.replacements_1                               0                       # number of replacements
cpu.l2.replacements_2                               0                       # number of replacements
cpu.l2.replacements_3                               0                       # number of replacements
cpu.l2.sampled_refs                                 0                       # Sample count of references to valid blocks.
cpu.l2.soft_prefetch_mshr_full                      0                       # number of mshr full events for SW prefetching instrutions
cpu.l2.soft_prefetch_mshr_full_0                    0                       # number of mshr full events for SW prefetching instrutions
cpu.l2.soft_prefetch_mshr_full_1                    0                       # number of mshr full events for SW prefetching instrutions
cpu.l2.soft_prefetch_mshr_full_2                    0                       # number of mshr full events for SW prefetching instrutions
cpu.l2.soft_prefetch_mshr_full_3                    0                       # number of mshr full events for SW prefetching instrutions
cpu.l2.tagsinuse                          5610.008469                       # Cycle average of tags in use
cpu.l2.total_refs                                   0                       # Total number of references to valid blocks.
cpu.l2.warmup_cycle                                 0                       # Cycle when the warmup percentage was hit.
cpu.l2.writeback_accesses                        3077                       # number of writeback accesses(hits+misses)
cpu.l2.writeback_accesses_0                        56                       # number of writeback accesses(hits+misses)
cpu.l2.writeback_accesses_1                       394                       # number of writeback accesses(hits+misses)
cpu.l2.writeback_accesses_2                       381                       # number of writeback accesses(hits+misses)
cpu.l2.writeback_accesses_3                      2246                       # number of writeback accesses(hits+misses)
cpu.l2.writeback_hits                            2374                       # number of writeback hits
cpu.l2.writeback_hits_0                            56                       # number of writeback hits
cpu.l2.writeback_hits_1                           374                       # number of writeback hits
cpu.l2.writeback_hits_2                           381                       # number of writeback hits
cpu.l2.writeback_hits_3                          1563                       # number of writeback hits
cpu.l2.writeback_miss_rate                   0.228469                       # miss rate for writeback accesses
cpu.l2.writeback_miss_rate_1                 0.050761                       # miss rate for writeback accesses
cpu.l2.writeback_miss_rate_3                 0.304096                       # miss rate for writeback accesses
cpu.l2.writeback_misses                           703                       # number of writeback misses
cpu.l2.writeback_misses_1                          20                       # number of writeback misses
cpu.l2.writeback_misses_3                         683                       # number of writeback misses
cpu.l2.writeback_mshr_miss_rate              0.228469                       # mshr miss rate for writeback accesses
cpu.l2.writeback_mshr_miss_rate_1            0.050761                       # mshr miss rate for writeback accesses
cpu.l2.writeback_mshr_miss_rate_3            0.304096                       # mshr miss rate for writeback accesses
cpu.l2.writeback_mshr_misses                      703                       # number of writeback MSHR misses
cpu.l2.writeback_mshr_misses_1                     20                       # number of writeback MSHR misses
cpu.l2.writeback_mshr_misses_3                    683                       # number of writeback MSHR misses
cpu.l2.writebacks                                   0                       # number of writebacks
cpu.l2.writebacks_0                                 0                       # number of writebacks
cpu.l2.writebacks_1                                 0                       # number of writebacks
cpu.l2.writebacks_2                                 0                       # number of writebacks
cpu.l2.writebacks_3                                 0                       # number of writebacks
cpu.numCycles                                  661126                       # number of cpu cycles simulated
cpu.toL2Bus.addr_idle_cycles                   631694                       # number of cycles bus was idle
cpu.toL2Bus.addr_idle_fraction               0.955483                       # fraction of time addr bus was idle
cpu.toL2Bus.addr_queued                      3.401332                       # average queueing delay seen by bus request
cpu.toL2Bus.addr_queued_0                    3.850205                       # average queueing delay seen by bus request
cpu.toL2Bus.addr_queued_1                    3.475383                       # average queueing delay seen by bus request
cpu.toL2Bus.addr_queued_2                    3.683230                       # average queueing delay seen by bus request
cpu.toL2Bus.addr_queued_3                    3.178302                       # average queueing delay seen by bus request
cpu.toL2Bus.addr_queued_cycles                 100074                       # total number of queued cycles for all requests
cpu.toL2Bus.addr_queued_cycles_0                 6580                       # total number of queued cycles for all requests
cpu.toL2Bus.addr_queued_cycles_1                52871                       # total number of queued cycles for all requests
cpu.toL2Bus.addr_queued_cycles_2                 6523                       # total number of queued cycles for all requests
cpu.toL2Bus.addr_queued_cycles_3                34100                       # total number of queued cycles for all requests
cpu.toL2Bus.addr_requests                       29422                       # number of transmissions on bus
cpu.toL2Bus.addr_requests_0                      1709                       # number of transmissions on bus
cpu.toL2Bus.addr_requests_1                     15213                       # number of transmissions on bus
cpu.toL2Bus.addr_requests_2                      1771                       # number of transmissions on bus
cpu.toL2Bus.addr_requests_3                     10729                       # number of transmissions on bus
cpu.toL2Bus.bus_blocked                             0                       # number of times bus was blocked
cpu.toL2Bus.bus_blocked_cycles                      0                       # number of cycles bus was blocked
cpu.toL2Bus.bus_blocked_fraction                    0                       # fraction of time bus was blocked
cpu.toL2Bus.data_idle_cycles                   631618                       # number of cycles bus was idle
cpu.toL2Bus.data_idle_fraction               0.955369                       # fraction of time data bus was idle
cpu.toL2Bus.data_queued                      1.023573                       # average queueing delay seen by bus request
cpu.toL2Bus.data_queued_0                    1.015729                       # average queueing delay seen by bus request
cpu.toL2Bus.data_queued_1                    1.021661                       # average queueing delay seen by bus request
cpu.toL2Bus.data_queued_2                    1.022302                       # average queueing delay seen by bus request
cpu.toL2Bus.data_queued_3                    1.028649                       # average queueing delay seen by bus request
cpu.toL2Bus.data_queued_cycles                  26965                       # total number of queued cycles for all requests
cpu.toL2Bus.data_queued_cycles_0                 1679                       # total number of queued cycles for all requests
cpu.toL2Bus.data_queued_cycles_1                15140                       # total number of queued cycles for all requests
cpu.toL2Bus.data_queued_cycles_2                 1421                       # total number of queued cycles for all requests
cpu.toL2Bus.data_queued_cycles_3                 8725                       # total number of queued cycles for all requests
cpu.toL2Bus.data_requests                       26344                       # number of transmissions on bus
cpu.toL2Bus.data_requests_0                      1653                       # number of transmissions on bus
cpu.toL2Bus.data_requests_1                     14819                       # number of transmissions on bus
cpu.toL2Bus.data_requests_2                      1390                       # number of transmissions on bus
cpu.toL2Bus.data_requests_3                      8482                       # number of transmissions on bus
cpu.toL2Bus.null_grants                           693                       # number of null grants (wasted cycles)
cpu.workload0.MainMem.page_count                    0                       # total number of pages allocated
cpu.workload0.MainMem.page_mem                      0                       # total size of memory pages allocated
cpu.workload0.MainMem.ptab_accesses           1988946                       # total page table accessess
cpu.workload0.MainMem.ptab_miss_rate           0.0081                       # first level page table miss rate
cpu.workload0.MainMem.ptab_misses               16102                       # total first level page table misses
cpu.workload0.PROG:num_syscalls                   639                       # Number of system calls
cpu.workload1.MainMem.page_count                    1                       # total number of pages allocated
cpu.workload1.MainMem.page_mem                      8                       # total size of memory pages allocated
cpu.workload1.MainMem.ptab_accesses           1010381                       # total page table accessess
cpu.workload1.MainMem.ptab_miss_rate           0.0085                       # first level page table miss rate
cpu.workload1.MainMem.ptab_misses                8587                       # total first level page table misses
cpu.workload1.PROG:num_syscalls                    68                       # Number of system calls
cpu.workload2.MainMem.page_count                    8                       # total number of pages allocated
cpu.workload2.MainMem.page_mem                     64                       # total size of memory pages allocated
cpu.workload2.MainMem.ptab_accesses           1948322                       # total page table accessess
cpu.workload2.MainMem.ptab_miss_rate           0.0951                       # first level page table miss rate
cpu.workload2.MainMem.ptab_misses              185298                       # total first level page table misses
cpu.workload2.PROG:num_syscalls                    13                       # Number of system calls
cpu.workload3.MainMem.page_count                   30                       # total number of pages allocated
cpu.workload3.MainMem.page_mem                    240                       # total size of memory pages allocated
cpu.workload3.MainMem.ptab_accesses           1650702                       # total page table accessess
cpu.workload3.MainMem.ptab_miss_rate           0.0041                       # first level page table miss rate
cpu.workload3.MainMem.ptab_misses                6697                       # total first level page table misses
cpu.workload3.PROG:num_syscalls                    13                       # Number of system calls
cpuinst_class_dist.start_dist
                   All ops ready            0      0.00%            # Operand status at dispatch
                One op not ready            0      0.00%            # Operand status at dispatch
           None rdy, mult chains            0      0.00%            # Operand status at dispatch
           None rdy, one chained            0      0.00%            # Operand status at dispatch
        None rdy, all self-timed            0      0.00%            # Operand status at dispatch
cpuinst_class_dist.end_dist
host_inst_rate                                  69042                       # Simulator instruction rate (inst/s)
host_mem_usage                                  22804                       # Number of bytes of host memory used
host_seconds                                    39.49                       # Real time elapsed on the host
host_tick_rate                                  16741                       # Simulator tick rate (ticks/s)
ram.accesses                                     9623                       # total number of accesses
ram.accesses_0                                    722                       # total number of accesses
ram.accesses_1                                   4001                       # total number of accesses
ram.accesses_2                                    796                       # total number of accesses
ram.accesses_3                                   4104                       # total number of accesses
ram.bytes_requested                                 0                       # total number of bytes requested
ram.bytes_requested_0                               0                       # total number of bytes requested
ram.bytes_requested_1                               0                       # total number of bytes requested
ram.bytes_requested_2                               0                       # total number of bytes requested
ram.bytes_requested_3                               0                       # total number of bytes requested
ram.bytes_sent                                      0                       # total number of bytes sent
ram.bytes_sent_0                                    0                       # total number of bytes sent
ram.bytes_sent_1                                    0                       # total number of bytes sent
ram.bytes_sent_2                                    0                       # total number of bytes sent
ram.bytes_sent_3                                    0                       # total number of bytes sent
ram.compressed_responses                            0                       # total number of accesses that are compressed
ram.compressed_responses_0                          0                       # total number of accesses that are compressed
ram.compressed_responses_1                          0                       # total number of accesses that are compressed
ram.compressed_responses_2                          0                       # total number of accesses that are compressed
ram.compressed_responses_3                          0                       # total number of accesses that are compressed
sim_freq                                    200000000                       # Frequency of simulated ticks
sim_insts                                     2726458                       # Number of instructions simulated
sim_seconds                                  0.003306                       # Number of seconds simulated
sim_ticks                                      661125                       # Number of ticks simulated
toMemBus.addr_idle_cycles                      650221                       # number of cycles bus was idle
toMemBus.addr_idle_fraction                  0.983507                       # fraction of time addr bus was idle
toMemBus.addr_queued                        11.004261                       # average queueing delay seen by bus request
toMemBus.addr_queued_0                      10.785319                       # average queueing delay seen by bus request
toMemBus.addr_queued_1                      11.049988                       # average queueing delay seen by bus request
toMemBus.addr_queued_2                      10.924623                       # average queueing delay seen by bus request
toMemBus.addr_queued_3                      11.013645                       # average queueing delay seen by bus request
toMemBus.addr_queued_cycles                    105894                       # total number of queued cycles for all requests
toMemBus.addr_queued_cycles_0                    7787                       # total number of queued cycles for all requests
toMemBus.addr_queued_cycles_1                   44211                       # total number of queued cycles for all requests
toMemBus.addr_queued_cycles_2                    8696                       # total number of queued cycles for all requests
toMemBus.addr_queued_cycles_3                   45200                       # total number of queued cycles for all requests
toMemBus.addr_requests                           9623                       # number of transmissions on bus
toMemBus.addr_requests_0                          722                       # number of transmissions on bus
toMemBus.addr_requests_1                         4001                       # number of transmissions on bus
toMemBus.addr_requests_2                          796                       # number of transmissions on bus
toMemBus.addr_requests_3                         4104                       # number of transmissions on bus
toMemBus.bus_blocked                                0                       # number of times bus was blocked
toMemBus.bus_blocked_cycles                         0                       # number of cycles bus was blocked
toMemBus.bus_blocked_fraction                       0                       # fraction of time bus was blocked
toMemBus.data_idle_cycles                      621456                       # number of cycles bus was idle
toMemBus.data_idle_fraction                  0.939998                       # fraction of time data bus was idle
toMemBus.data_queued                         2.043722                       # average queueing delay seen by bus request
toMemBus.data_queued_0                       2.891967                       # average queueing delay seen by bus request
toMemBus.data_queued_1                       1.939211                       # average queueing delay seen by bus request
toMemBus.data_queued_2                       1.989950                       # average queueing delay seen by bus request
toMemBus.data_queued_3                       1.998831                       # average queueing delay seen by bus request
toMemBus.data_queued_cycles                     18230                       # total number of queued cycles for all requests
toMemBus.data_queued_cycles_0                    2088                       # total number of queued cycles for all requests
toMemBus.data_queued_cycles_1                    7720                       # total number of queued cycles for all requests
toMemBus.data_queued_cycles_2                    1584                       # total number of queued cycles for all requests
toMemBus.data_queued_cycles_3                    6838                       # total number of queued cycles for all requests
toMemBus.data_requests                           8920                       # number of transmissions on bus
toMemBus.data_requests_0                          722                       # number of transmissions on bus
toMemBus.data_requests_1                         3981                       # number of transmissions on bus
toMemBus.data_requests_2                          796                       # number of transmissions on bus
toMemBus.data_requests_3                         3421                       # number of transmissions on bus
toMemBus.null_grants                                0                       # number of null grants (wasted cycles)

---------- End Simulation Statistics   ----------
