
---------- Begin Simulation Statistics ----------
cpu.COM:IPB                                  6.499129                       # Committed instructions per branch
cpu.COM:IPB_0                                5.674010                       # Committed instructions per branch
cpu.COM:IPB_1                                6.325511                       # Committed instructions per branch
cpu.COM:IPB_2                                7.861951                       # Committed instructions per branch
cpu.COM:IPB_3                                6.211598                       # Committed instructions per branch
cpu.COM:IPC                                  3.876943                       # Committed instructions per cycle
cpu.COM:IPC_0                                1.448143                       # Committed instructions per cycle
cpu.COM:IPC_1                                0.298595                       # Committed instructions per cycle
cpu.COM:IPC_2                                1.445097                       # Committed instructions per cycle
cpu.COM:IPC_3                                0.685108                       # Committed instructions per cycle
cpu.COM:branches                               199780                       # Number of branches committed
cpu.COM:branches_0                              85475                       # Number of branches committed
cpu.COM:branches_1                              15809                       # Number of branches committed
cpu.COM:branches_2                              61558                       # Number of branches committed
cpu.COM:branches_3                              36938                       # Number of branches committed
cpu.COM:bw_lim_avg                            18.1304                       # Avg number not committed in cycles BW limited
cpu.COM:bw_lim_avg_0                           5.0126                       # Avg number not committed in cycles BW limited
cpu.COM:bw_lim_avg_1                           1.6390                       # Avg number not committed in cycles BW limited
cpu.COM:bw_lim_avg_2                           8.0078                       # Avg number not committed in cycles BW limited
cpu.COM:bw_lim_avg_3                           3.4709                       # Avg number not committed in cycles BW limited
cpu.COM:bw_lim_events                           81482                       # number cycles where commit BW limit reached
cpu.COM:bw_lim_rate                            4.4112                       # Average number not committed due to BW (over all cycles)
cpu.COM:bw_lim_rate_0                          1.2196                       # Average number not committed due to BW (over all cycles)
cpu.COM:bw_lim_rate_1                          0.3988                       # Average number not committed due to BW (over all cycles)
cpu.COM:bw_lim_rate_2                          1.9483                       # Average number not committed due to BW (over all cycles)
cpu.COM:bw_lim_rate_3                          0.8445                       # Average number not committed due to BW (over all cycles)
cpu.COM:bw_lim_stdev_0_mean                    5.0126                       # standard deviation of bw_lim_avg value
cpu.COM:bw_lim_stdev_0_stdev                   7.3592                       # standard deviation of bw_lim_avg value
**Ignore: cpu.COM:bw_lim_stdev_0_TOT       81482.0000                       # standard deviation of bw_lim_avg value
cpu.COM:bw_lim_stdev_1_mean                    1.6390                       # standard deviation of bw_lim_avg value
cpu.COM:bw_lim_stdev_1_stdev                   7.0014                       # standard deviation of bw_lim_avg value
**Ignore: cpu.COM:bw_lim_stdev_1_TOT       81482.0000                       # standard deviation of bw_lim_avg value
cpu.COM:bw_lim_stdev_2_mean                    8.0078                       # standard deviation of bw_lim_avg value
cpu.COM:bw_lim_stdev_2_stdev                  16.8989                       # standard deviation of bw_lim_avg value
**Ignore: cpu.COM:bw_lim_stdev_2_TOT       81482.0000                       # standard deviation of bw_lim_avg value
cpu.COM:bw_lim_stdev_3_mean                    3.4709                       # standard deviation of bw_lim_avg value
cpu.COM:bw_lim_stdev_3_stdev                  11.6528                       # standard deviation of bw_lim_avg value
**Ignore: cpu.COM:bw_lim_stdev_3_TOT       81482.0000                       # standard deviation of bw_lim_avg value
cpu.COM:bw_limited                            1477303                       # number of insts not committed due to BW limits
cpu.COM:bw_limited_0                           408440                       # number of insts not committed due to BW limits
cpu.COM:bw_limited_1                           133553                       # number of insts not committed due to BW limits
cpu.COM:bw_limited_2                           652492                       # number of insts not committed due to BW limits
cpu.COM:bw_limited_3                           282818                       # number of insts not committed due to BW limits
cpu.COM:committed_per_cycle.start_dist                         # Number of insts commited each cycle
cpu.COM:committed_per_cycle.samples            267738                      
cpu.COM:committed_per_cycle.min_value               0                      
                               0         1060     39.59%           
                               1        40186   1500.94%           
                               2        32779   1224.29%           
                               3        30294   1131.48%           
                               4        26389    985.63%           
                               5        18226    680.74%           
                               6        15746    588.11%           
                               7        11603    433.37%           
                               8        91455   3415.84%           
cpu.COM:committed_per_cycle.max_value               8                      
cpu.COM:committed_per_cycle.end_dist

cpu.COM:count                                 1298396                       # Number of instructions committed
cpu.COM:count_0                                484986                       # Number of instructions committed
cpu.COM:count_1                                100000                       # Number of instructions committed
cpu.COM:count_2                                483966                       # Number of instructions committed
cpu.COM:count_3                                229444                       # Number of instructions committed
cpu.COM:loads                                  336320                       # Number of loads committed
cpu.COM:loads_0                                147538                       # Number of loads committed
cpu.COM:loads_1                                 26002                       # Number of loads committed
cpu.COM:loads_2                                123857                       # Number of loads committed
cpu.COM:loads_3                                 38923                       # Number of loads committed
cpu.COM:membars                                     0                       # Number of memory barriers committed
cpu.COM:membars_0                                   0                       # Number of memory barriers committed
cpu.COM:membars_1                                   0                       # Number of memory barriers committed
cpu.COM:membars_2                                   0                       # Number of memory barriers committed
cpu.COM:membars_3                                   0                       # Number of memory barriers committed
cpu.COM:refs                                   482160                       # Number of memory references committed
cpu.COM:refs_0                                 195357                       # Number of memory references committed
cpu.COM:refs_1                                  36320                       # Number of memory references committed
cpu.COM:refs_2                                 179689                       # Number of memory references committed
cpu.COM:refs_3                                  70794                       # Number of memory references committed
cpu.COM:stores                                 145840                       # Number of stores committed
cpu.COM:stores_0                                47819                       # Number of stores committed
cpu.COM:stores_1                                10318                       # Number of stores committed
cpu.COM:stores_2                                55832                       # Number of stores committed
cpu.COM:stores_3                                31871                       # Number of stores committed
cpu.COM:swp_count                                2253                       # Number of s/w prefetches committed
cpu.COM:swp_count_0                                 0                       # Number of s/w prefetches committed
cpu.COM:swp_count_1                               248                       # Number of s/w prefetches committed
cpu.COM:swp_count_2                                16                       # Number of s/w prefetches committed
cpu.COM:swp_count_3                              1989                       # Number of s/w prefetches committed
cpu.DDQ:count                                81821878                       # cum count of instructions
cpu.DDQ:count_0                              25114574                       # cum count of instructions
cpu.DDQ:count_1                              16388649                       # cum count of instructions
cpu.DDQ:count_2                              23831760                       # cum count of instructions
cpu.DDQ:count_3                              16486895                       # cum count of instructions
cpu.DDQ:rate                                      244                       # average number of instructions
cpu.DDQ:rate_0                                     75                       # average number of instructions
cpu.DDQ:rate_1                                     49                       # average number of instructions
cpu.DDQ:rate_2                                     71                       # average number of instructions
cpu.DDQ:rate_3                                     49                       # average number of instructions
cpu.DIS:chain_creation.start_dist
     Inst has no outstanding IDEPS            0      0.00%            # Reason that chain head was created
      IDEP chain reached max depth            0      0.00%            # Reason that chain head was created
                    Inst is a load            0      0.00%            # Reason that chain head was created
  Chain has multiple chained IDEPS            0      0.00%            # Reason that chain head was created
cpu.DIS:chain_creation.end_dist
cpu.DIS:chain_head_frac                             0                       # fraction of insts that are chain heads
cpu.DIS:chain_head_frac_0                           0                       # fraction of insts that are chain heads
cpu.DIS:chain_head_frac_1                           0                       # fraction of insts that are chain heads
cpu.DIS:chain_head_frac_2                           0                       # fraction of insts that are chain heads
cpu.DIS:chain_head_frac_3                           0                       # fraction of insts that are chain heads
cpu.DIS:chain_heads                                 0                       # number insts that are chain heads
cpu.DIS:chain_heads_0                               0                       # number insts that are chain heads
cpu.DIS:chain_heads_1                               0                       # number insts that are chain heads
cpu.DIS:chain_heads_2                               0                       # number insts that are chain heads
cpu.DIS:chain_heads_3                               0                       # number insts that are chain heads
cpu.DIS:chains_insuf                                0                       # number of times thread had insuf chains
cpu.DIS:chains_insuf_0                              0                       # number of times thread had insuf chains
cpu.DIS:chains_insuf_1                              0                       # number of times thread had insuf chains
cpu.DIS:chains_insuf_2                              0                       # number of times thread had insuf chains
cpu.DIS:chains_insuf_3                              0                       # number of times thread had insuf chains
cpu.DIS:chains_insuf_rate                           0                       # rate that thread had insuf chains
cpu.DIS:chains_insuf_rate_0                         0                       # rate that thread had insuf chains
cpu.DIS:chains_insuf_rate_1                         0                       # rate that thread had insuf chains
cpu.DIS:chains_insuf_rate_2                         0                       # rate that thread had insuf chains
cpu.DIS:chains_insuf_rate_3                         0                       # rate that thread had insuf chains
cpu.DIS:count                                 1577787                       # cumulative count of dispatched insts
cpu.DIS:count_0                                581127                       # cumulative count of dispatched insts
cpu.DIS:count_1                                153361                       # cumulative count of dispatched insts
cpu.DIS:count_2                                524474                       # cumulative count of dispatched insts
cpu.DIS:count_3                                318825                       # cumulative count of dispatched insts
cpu.DIS:insufficient_chains                         0                       # Number of instances where dispatch stopped
cpu.DIS:mod_n_stall_avg_free                 no value                       # avg free slots per cycle
cpu.DIS:mod_n_stall_avg_free_0               no value                       # avg free slots per cycle
cpu.DIS:mod_n_stall_avg_free_1               no value                       # avg free slots per cycle
cpu.DIS:mod_n_stall_avg_free_2               no value                       # avg free slots per cycle
cpu.DIS:mod_n_stall_avg_free_3               no value                       # avg free slots per cycle
cpu.DIS:mod_n_stall_frac                            0                       # avg stalls per cycle
cpu.DIS:mod_n_stall_frac_0                          0                       # avg stalls per cycle
cpu.DIS:mod_n_stall_frac_1                          0                       # avg stalls per cycle
cpu.DIS:mod_n_stall_frac_2                          0                       # avg stalls per cycle
cpu.DIS:mod_n_stall_frac_3                          0                       # avg stalls per cycle
cpu.DIS:mod_n_stall_free                            0                       # free slots when dispatch stalled due to mod-n
cpu.DIS:mod_n_stall_free_0                          0                       # free slots when dispatch stalled due to mod-n
cpu.DIS:mod_n_stall_free_1                          0                       # free slots when dispatch stalled due to mod-n
cpu.DIS:mod_n_stall_free_2                          0                       # free slots when dispatch stalled due to mod-n
cpu.DIS:mod_n_stall_free_3                          0                       # free slots when dispatch stalled due to mod-n
cpu.DIS:mod_n_stalls                                0                       # cycles where dispatch stalled due to mod-n
cpu.DIS:mod_n_stalls_0                              0                       # cycles where dispatch stalled due to mod-n
cpu.DIS:mod_n_stalls_1                              0                       # cycles where dispatch stalled due to mod-n
cpu.DIS:mod_n_stalls_2                              0                       # cycles where dispatch stalled due to mod-n
cpu.DIS:mod_n_stalls_3                              0                       # cycles where dispatch stalled due to mod-n
cpu.DIS:one_rdy_insts                               0                       # number of 2-op insts w/ one rdy op
cpu.DIS:one_rdy_insts_0                             0                       # number of 2-op insts w/ one rdy op
cpu.DIS:one_rdy_insts_1                             0                       # number of 2-op insts w/ one rdy op
cpu.DIS:one_rdy_insts_2                             0                       # number of 2-op insts w/ one rdy op
cpu.DIS:one_rdy_insts_3                             0                       # number of 2-op insts w/ one rdy op
cpu.DIS:one_rdy_ratio                        no value                       # fraction of 2-op insts w/ one ready op
cpu.DIS:one_rdy_ratio_0                      no value                       # fraction of 2-op insts w/ one ready op
cpu.DIS:one_rdy_ratio_1                      no value                       # fraction of 2-op insts w/ one ready op
cpu.DIS:one_rdy_ratio_2                      no value                       # fraction of 2-op insts w/ one ready op
cpu.DIS:one_rdy_ratio_3                      no value                       # fraction of 2-op insts w/ one ready op
cpu.DIS:op_count                              2160675                       # number of operations dispatched
cpu.DIS:op_count_0                             815999                       # number of operations dispatched
cpu.DIS:op_count_1                             209815                       # number of operations dispatched
cpu.DIS:op_count_2                             720401                       # number of operations dispatched
cpu.DIS:op_count_3                             414460                       # number of operations dispatched
cpu.DIS:op_rate                              6.451663                       # dispatched operations per cycle
cpu.DIS:op_rate_0                            2.436531                       # dispatched operations per cycle
cpu.DIS:op_rate_1                            0.626497                       # dispatched operations per cycle
cpu.DIS:op_rate_2                            2.151080                       # dispatched operations per cycle
cpu.DIS:op_rate_3                            1.237556                       # dispatched operations per cycle
cpu.DIS:rate                                 4.711190                       # dispatched_insts per cycle
cpu.DIS:rate_0                               1.735215                       # dispatched_insts per cycle
cpu.DIS:rate_1                               0.457928                       # dispatched_insts per cycle
cpu.DIS:rate_2                               1.566052                       # dispatched_insts per cycle
cpu.DIS:rate_3                               0.951995                       # dispatched_insts per cycle
cpu.DIS:second_choice_clust                         0                       # Number of instructions dispatched to second-choice cluster
cpu.DIS:second_choice_stall                         0                       # Number of instructions stalled when first choice not available
cpu.DIS:serialize_stall_cycles                      0                       # count of cycles dispatch stalled for serializing inst
cpu.DIS:serialize_stall_cycles_0                    0                       # count of cycles dispatch stalled for serializing inst
cpu.DIS:serialize_stall_cycles_1                    0                       # count of cycles dispatch stalled for serializing inst
cpu.DIS:serialize_stall_cycles_2                    0                       # count of cycles dispatch stalled for serializing inst
cpu.DIS:serialize_stall_cycles_3                    0                       # count of cycles dispatch stalled for serializing inst
cpu.DIS:serializing_insts                           0                       # count of serializing insts dispatched
cpu.DIS:serializing_insts_0                         0                       # count of serializing insts dispatched
cpu.DIS:serializing_insts_1                         0                       # count of serializing insts dispatched
cpu.DIS:serializing_insts_2                         0                       # count of serializing insts dispatched
cpu.DIS:serializing_insts_3                         0                       # count of serializing insts dispatched
cpu.DIS:two_input_insts                             0                       # Number of two input instructions queued
cpu.DIS:two_input_insts_0                           0                       # Number of two input instructions queued
cpu.DIS:two_input_insts_1                           0                       # Number of two input instructions queued
cpu.DIS:two_input_insts_2                           0                       # Number of two input instructions queued
cpu.DIS:two_input_insts_3                           0                       # Number of two input instructions queued
cpu.DIS:two_input_ratio                             0                       # fraction of all insts having 2 inputs
cpu.DIS:two_input_ratio_0                           0                       # fraction of all insts having 2 inputs
cpu.DIS:two_input_ratio_1                           0                       # fraction of all insts having 2 inputs
cpu.DIS:two_input_ratio_2                           0                       # fraction of all insts having 2 inputs
cpu.DIS:two_input_ratio_3                           0                       # fraction of all insts having 2 inputs
cpu.FETCH:branch_count                         317761                       # Number of branches fetched
cpu.FETCH:branch_count_0                       129448                       # Number of branches fetched
cpu.FETCH:branch_count_1                        34646                       # Number of branches fetched
cpu.FETCH:branch_count_2                        77606                       # Number of branches fetched
cpu.FETCH:branch_count_3                        76061                       # Number of branches fetched
cpu.FETCH:branch_rate                        0.948818                       # Number of branch fetches per cycle
cpu.FETCH:branch_rate_0                      0.386525                       # Number of branch fetches per cycle
cpu.FETCH:branch_rate_1                      0.103451                       # Number of branch fetches per cycle
cpu.FETCH:branch_rate_2                      0.231727                       # Number of branch fetches per cycle
cpu.FETCH:branch_rate_3                      0.227114                       # Number of branch fetches per cycle
cpu.FETCH:chance_pct_0                       0.365522                       # Percentage of all fetch chances
cpu.FETCH:chance_pct_1                       0.118582                       # Percentage of all fetch chances
cpu.FETCH:chance_pct_2                       0.274006                       # Percentage of all fetch chances
cpu.FETCH:chance_pct_3                       0.241890                       # Percentage of all fetch chances
cpu.FETCH:chances                              314077                       # Number of fetch opportunities
cpu.FETCH:chances_0                            114802                       # Number of fetch opportunities
cpu.FETCH:chances_1                             37244                       # Number of fetch opportunities
cpu.FETCH:chances_2                             86059                       # Number of fetch opportunities
cpu.FETCH:chances_3                             75972                       # Number of fetch opportunities
cpu.FETCH:choice                               314077                       # Number of times we fetched from our first choice
cpu.FETCH:choice.start_dist
                               0       314077    100.00%            # Number of times we fetched from our first choice
                               1            0      0.00%            # Number of times we fetched from our first choice
                               2            0      0.00%            # Number of times we fetched from our first choice
                               3            0      0.00%            # Number of times we fetched from our first choice
cpu.FETCH:choice.end_dist
cpu.FETCH:count                               2383379                       # Number of instructions fetched
cpu.FETCH:count_0                              831937                       # Number of instructions fetched
cpu.FETCH:count_1                              290820                       # Number of instructions fetched
cpu.FETCH:count_2                              665949                       # Number of instructions fetched
cpu.FETCH:count_3                              594673                       # Number of instructions fetched
cpu.FETCH:decisions                            314077                       # number of times the fetch stage chose between threads
cpu.FETCH:idle_cycles                           20825                       # number of cycles where fetch stage was idle
cpu.FETCH:idle_icache_blocked_cycles                0                       # number of cycles where fetch was idle due to icache blocked
cpu.FETCH:idle_rate                              6.22                       # percent of cycles fetch stage was idle
cpu.FETCH:prio_changes                              0                       # Number of times priorities were changed
cpu.FETCH:prio_changes_0                            0                       # Number of times priorities were changed
cpu.FETCH:prio_changes_1                            0                       # Number of times priorities were changed
cpu.FETCH:prio_changes_2                            0                       # Number of times priorities were changed
cpu.FETCH:prio_changes_3                            0                       # Number of times priorities were changed
cpu.FETCH:rate                               7.116646                       # Number of inst fetches per cycle
cpu.FETCH:rate_0                             2.484121                       # Number of inst fetches per cycle
cpu.FETCH:rate_1                             0.868373                       # Number of inst fetches per cycle
cpu.FETCH:rate_2                             1.988489                       # Number of inst fetches per cycle
cpu.FETCH:rate_3                             1.775663                       # Number of inst fetches per cycle
cpu.FETCH:rate_dist.start_dist                                 # Number of instructions fetched each cycle (Total)
cpu.FETCH:rate_dist.samples                    314077                      
cpu.FETCH:rate_dist.min_value                       0                      
                               0         1071     34.10%           
                               1         1340     42.66%           
                               2         1504     47.89%           
                               3         1870     59.54%           
                               4         3244    103.29%           
                               5         4827    153.69%           
                               6        30316    965.24%           
                               7         4826    153.66%           
                               8       265079   8439.94%           
cpu.FETCH:rate_dist.max_value                       8                      
cpu.FETCH:rate_dist.end_dist

cpu.FETCH:rate_dist_0.start_dist                               # Number of instructions fetched each cycle (Thread 0)
cpu.FETCH:rate_dist_0.samples                  114802                      
cpu.FETCH:rate_dist_0.min_value                     0                      
                               0          649     56.53%           
                               1          795     69.25%           
                               2          856     74.56%           
                               3          975     84.93%           
                               4         1409    122.73%           
                               5         2614    227.70%           
                               6        25074   2184.11%           
                               7         2085    181.62%           
                               8        80345   6998.57%           
cpu.FETCH:rate_dist_0.max_value                     8                      
cpu.FETCH:rate_dist_0.end_dist

cpu.FETCH:rate_dist_1.start_dist                               # Number of instructions fetched each cycle (Thread 1)
cpu.FETCH:rate_dist_1.samples                   37244                      
cpu.FETCH:rate_dist_1.min_value                     0                      
                               0          255     68.47%           
                               1           71     19.06%           
                               2           93     24.97%           
                               3          144     38.66%           
                               4          327     87.80%           
                               5          194     52.09%           
                               6          383    102.84%           
                               7          661    177.48%           
                               8        35116   9428.63%           
cpu.FETCH:rate_dist_1.max_value                     8                      
cpu.FETCH:rate_dist_1.end_dist

cpu.FETCH:rate_dist_2.start_dist                               # Number of instructions fetched each cycle (Thread 2)
cpu.FETCH:rate_dist_2.samples                   86059                      
cpu.FETCH:rate_dist_2.min_value                     1                      
                               0            0      0.00%           
                               1          281     32.65%           
                               2          349     40.55%           
                               3          536     62.28%           
                               4          998    115.97%           
                               5         1437    166.98%           
                               6         3366    391.13%           
                               7          747     86.80%           
                               8        78345   9103.64%           
cpu.FETCH:rate_dist_2.max_value                     8                      
cpu.FETCH:rate_dist_2.end_dist

cpu.FETCH:rate_dist_3.start_dist                               # Number of instructions fetched each cycle (Thread 3)
cpu.FETCH:rate_dist_3.samples                   75972                      
cpu.FETCH:rate_dist_3.min_value                     0                      
                               0          167     21.98%           
                               1          193     25.40%           
                               2          206     27.12%           
                               3          215     28.30%           
                               4          510     67.13%           
                               5          582     76.61%           
                               6         1493    196.52%           
                               7         1333    175.46%           
                               8        71273   9381.48%           
cpu.FETCH:rate_dist_3.max_value                     8                      
cpu.FETCH:rate_dist_3.end_dist

cpu.IFQ:count                                15461965                       # cumulative IFQ occupancy
cpu.IFQ:full_count                             182492                       # cumulative IFQ full count
cpu.IFQ:full_count_0                            50622                       # cumulative IFQ full count
cpu.IFQ:full_count_1                            54287                       # cumulative IFQ full count
cpu.IFQ:full_count_2                            53574                       # cumulative IFQ full count
cpu.IFQ:full_count_3                            24009                       # cumulative IFQ full count
cpu.IFQ:full_rate                           54.491165                       # fraction of time (cycle's) IFQ was full
cpu.IFQ:full_rate_0                         15.115467                       # fraction of time (cycle's) IFQ was full
cpu.IFQ:full_rate_1                         16.209817                       # fraction of time (cycle's) IFQ was full
cpu.IFQ:full_rate_2                         15.996919                       # fraction of time (cycle's) IFQ was full
cpu.IFQ:full_rate_3                          7.168963                       # fraction of time (cycle's) IFQ was full
cpu.IFQ:latency                              9.799780                       # avg IFQ occupant latency (cycle's)
cpu.IFQ:latency_0                           26.606860                       # avg IFQ occupant latency (cycle's)
cpu.IFQ:latency_1                          100.820711                       # avg IFQ occupant latency (cycle's)
cpu.IFQ:latency_2                           29.480899                       # avg IFQ occupant latency (cycle's)
cpu.IFQ:latency_3                           48.496714                       # avg IFQ occupant latency (cycle's)
cpu.IFQ:occupancy                           46.168625                       # avg IFQ occupancy (inst's)
cpu.IFQ:qfull_iq_occ                          6879338                       # Number of insts in IQ when fetch-queue full
cpu.IFQ:qfull_iq_occ_0                        1791844                       # Number of insts in IQ when fetch-queue full
cpu.IFQ:qfull_iq_occ_1                        2297646                       # Number of insts in IQ when fetch-queue full
cpu.IFQ:qfull_iq_occ_2                        1891615                       # Number of insts in IQ when fetch-queue full
cpu.IFQ:qfull_iq_occ_3                         898233                       # Number of insts in IQ when fetch-queue full
cpu.IFQ:qfull_iq_occ_dist_0.start_dist                         # Number of insts in IQ when fetch-queue full
cpu.IFQ:qfull_iq_occ_dist_0.samples            151433                      
cpu.IFQ:qfull_iq_occ_dist_0.min_value               0                      
                               0        64489   4258.58%           
                              10        64301   4246.17%           
                              20        17073   1127.43%           
                              30         4056    267.84%           
                              40          764     50.45%           
                              50          745     49.20%           
                              60            5      0.33%           
cpu.IFQ:qfull_iq_occ_dist_0.max_value              64                      
cpu.IFQ:qfull_iq_occ_dist_0.end_dist

cpu.IFQ:qfull_iq_occ_dist_1.start_dist                         # Number of insts in IQ when fetch-queue full
cpu.IFQ:qfull_iq_occ_dist_1.samples            151433                      
cpu.IFQ:qfull_iq_occ_dist_1.min_value               0                      
                               0        54369   3590.30%           
                              10        49347   3258.67%           
                              20        31373   2071.74%           
                              30         8929    589.63%           
                              40         3826    252.65%           
                              50         2306    152.28%           
                              60         1283     84.72%           
cpu.IFQ:qfull_iq_occ_dist_1.max_value              64                      
cpu.IFQ:qfull_iq_occ_dist_1.end_dist

cpu.IFQ:qfull_iq_occ_dist_2.start_dist                         # Number of insts in IQ when fetch-queue full
cpu.IFQ:qfull_iq_occ_dist_2.samples            151433                      
cpu.IFQ:qfull_iq_occ_dist_2.min_value               0                      
                               0        58623   3871.22%           
                              10        68807   4543.73%           
                              20        19863   1311.67%           
                              30         3756    248.03%           
                              40          186     12.28%           
                              50          169     11.16%           
                              60           29      1.92%           
cpu.IFQ:qfull_iq_occ_dist_2.max_value              64                      
cpu.IFQ:qfull_iq_occ_dist_2.end_dist

cpu.IFQ:qfull_iq_occ_dist_3.start_dist                         # Number of insts in IQ when fetch-queue full
cpu.IFQ:qfull_iq_occ_dist_3.samples            151433                      
cpu.IFQ:qfull_iq_occ_dist_3.min_value               0                      
                               0       103849   6857.75%           
                              10        43457   2869.72%           
                              20         3603    237.93%           
                              30          356     23.51%           
                              40           39      2.58%           
                              50          121      7.99%           
                              60            8      0.53%           
cpu.IFQ:qfull_iq_occ_dist_3.max_value              64                      
cpu.IFQ:qfull_iq_occ_dist_3.end_dist

cpu.IFQ:qfull_rob_occ                        16357112                       # Number of insts in ROB when fetch-queue full
cpu.IFQ:qfull_rob_occ_0                       4235464                       # Number of insts in ROB when fetch-queue full
cpu.IFQ:qfull_rob_occ_1                       3558344                       # Number of insts in ROB when fetch-queue full
cpu.IFQ:qfull_rob_occ_2                       5798396                       # Number of insts in ROB when fetch-queue full
cpu.IFQ:qfull_rob_occ_3                       2764908                       # Number of insts in ROB when fetch-queue full
cpu.IFQ:qfull_rob_occ_dist_0.start_dist                        # Number of insts in ROB when fetch-queue full
cpu.IFQ:qfull_rob_occ_dist_0.samples           151433                      
cpu.IFQ:qfull_rob_occ_dist_0.min_value              0                      
                               0        23994   1584.46%           
                              10        22960   1516.18%           
                              20        42537   2808.97%           
                              30        29560   1952.02%           
                              40        20290   1339.87%           
                              50         6799    448.98%           
                              60         2489    164.36%           
                              70          591     39.03%           
                              80          373     24.63%           
                              90          119      7.86%           
                             100           33      2.18%           
                             110          201     13.27%           
                             120           25      1.65%           
                             130           19      1.25%           
                             140          112      7.40%           
                             150           71      4.69%           
                             160           95      6.27%           
                             170           77      5.08%           
                             180          720     47.55%           
                             190          368     24.30%           
                             200            0      0.00%           
cpu.IFQ:qfull_rob_occ_dist_0.max_value            196                      
cpu.IFQ:qfull_rob_occ_dist_0.end_dist

cpu.IFQ:qfull_rob_occ_dist_1.start_dist                        # Number of insts in ROB when fetch-queue full
cpu.IFQ:qfull_rob_occ_dist_1.samples           151433                      
cpu.IFQ:qfull_rob_occ_dist_1.min_value              0                      
                               0        37244   2459.44%           
                              10        16544   1092.50%           
                              20        52018   3435.05%           
                              30        26484   1748.89%           
                              40         8183    540.37%           
                              50         5161    340.81%           
                              60         2892    190.98%           
                              70         1713    113.12%           
                              80          265     17.50%           
                              90          307     20.27%           
                             100           56      3.70%           
                             110           82      5.41%           
                             120           88      5.81%           
                             130           47      3.10%           
                             140          149      9.84%           
                             150           84      5.55%           
                             160           93      6.14%           
                             170           21      1.39%           
                             180            2      0.13%           
                             190            0      0.00%           
                             200            0      0.00%           
cpu.IFQ:qfull_rob_occ_dist_1.max_value            183                      
cpu.IFQ:qfull_rob_occ_dist_1.end_dist

cpu.IFQ:qfull_rob_occ_dist_2.start_dist                        # Number of insts in ROB when fetch-queue full
cpu.IFQ:qfull_rob_occ_dist_2.samples           151433                      
cpu.IFQ:qfull_rob_occ_dist_2.min_value              0                      
                               0        17540   1158.27%           
                              10        21216   1401.02%           
                              20        42933   2835.12%           
                              30        27343   1805.62%           
                              40        13599    898.02%           
                              50         6709    443.03%           
                              60         3927    259.32%           
                              70         1610    106.32%           
                              80         1999    132.01%           
                              90         1640    108.30%           
                             100         1844    121.77%           
                             110         1755    115.89%           
                             120         1387     91.59%           
                             130         2022    133.52%           
                             140         1958    129.30%           
                             150         1305     86.18%           
                             160          803     53.03%           
                             170          726     47.94%           
                             180          326     21.53%           
                             190          791     52.23%           
                             200            0      0.00%           
cpu.IFQ:qfull_rob_occ_dist_2.max_value            196                      
cpu.IFQ:qfull_rob_occ_dist_2.end_dist

cpu.IFQ:qfull_rob_occ_dist_3.start_dist                        # Number of insts in ROB when fetch-queue full
cpu.IFQ:qfull_rob_occ_dist_3.samples           151433                      
cpu.IFQ:qfull_rob_occ_dist_3.min_value              0                      
                               0        60935   4023.89%           
                              10        22510   1486.47%           
                              20        37788   2495.36%           
                              30        14267    942.13%           
                              40         6869    453.60%           
                              50         3747    247.44%           
                              60         2417    159.61%           
                              70          877     57.91%           
                              80          730     48.21%           
                              90          161     10.63%           
                             100          255     16.84%           
                             110           65      4.29%           
                             120          142      9.38%           
                             130           53      3.50%           
                             140           67      4.42%           
                             150           56      3.70%           
                             160           79      5.22%           
                             170           26      1.72%           
                             180          282     18.62%           
                             190          107      7.07%           
                             200            0      0.00%           
cpu.IFQ:qfull_rob_occ_dist_3.max_value            196                      
cpu.IFQ:qfull_rob_occ_dist_3.end_dist

cpu.IQ:cap_events                                   0                       # number of cycles where IQ cap was active
cpu.IQ:cap_events_0                                 0                       # number of cycles where IQ cap was active
cpu.IQ:cap_events_1                                 0                       # number of cycles where IQ cap was active
cpu.IQ:cap_events_2                                 0                       # number of cycles where IQ cap was active
cpu.IQ:cap_events_3                                 0                       # number of cycles where IQ cap was active
cpu.IQ:cap_inst                                     0                       # number of instructions held up by IQ cap
cpu.IQ:cap_inst_0                                   0                       # number of instructions held up by IQ cap
cpu.IQ:cap_inst_1                                   0                       # number of instructions held up by IQ cap
cpu.IQ:cap_inst_2                                   0                       # number of instructions held up by IQ cap
cpu.IQ:cap_inst_3                                   0                       # number of instructions held up by IQ cap
cpu.IQ:residence:(null).start_dist                             # cycles from dispatch to issue
cpu.IQ:residence:(null).samples                     0                      
cpu.IQ:residence:(null).min_value                   0                      
                               0            0                      
                               2            0                      
                               4            0                      
                               6            0                      
                               8            0                      
                              10            0                      
                              12            0                      
                              14            0                      
                              16            0                      
                              18            0                      
                              20            0                      
                              22            0                      
                              24            0                      
                              26            0                      
                              28            0                      
                              30            0                      
                              32            0                      
                              34            0                      
                              36            0                      
                              38            0                      
                              40            0                      
                              42            0                      
                              44            0                      
                              46            0                      
                              48            0                      
                              50            0                      
                              52            0                      
                              54            0                      
                              56            0                      
                              58            0                      
                              60            0                      
                              62            0                      
                              64            0                      
                              66            0                      
                              68            0                      
                              70            0                      
                              72            0                      
                              74            0                      
                              76            0                      
                              78            0                      
                              80            0                      
                              82            0                      
                              84            0                      
                              86            0                      
                              88            0                      
                              90            0                      
                              92            0                      
                              94            0                      
                              96            0                      
                              98            0                      
cpu.IQ:residence:(null).max_value                   0                      
cpu.IQ:residence:(null).end_dist

cpu.IQ:residence:IntAlu.start_dist                             # cycles from dispatch to issue
cpu.IQ:residence:IntAlu.samples                907745                      
cpu.IQ:residence:IntAlu.min_value                   1                      
                               0        94277   1038.58%   1038.58%
                               2       130835   1441.32%   2479.90%
                               4       113889   1254.64%   3734.54%
                               6       138767   1528.70%   5263.24%
                               8       117121   1290.24%   6553.48%
                              10       104372   1149.79%   7703.28%
                              12        75232    828.78%   8532.05%
                              14        51688    569.41%   9101.47%
                              16        32090    353.51%   9454.98%
                              18        18243    200.97%   9655.95%
                              20         7881     86.82%   9742.77%
                              22         3258     35.89%   9778.66%
                              24         1396     15.38%   9794.04%
                              26          606      6.68%   9800.71%
                              28          405      4.46%   9805.18%
                              30          319      3.51%   9808.69%
                              32          232      2.56%   9811.25%
                              34          201      2.21%   9813.46%
                              36          152      1.67%   9815.14%
                              38          102      1.12%   9816.26%
                              40           76      0.84%   9817.10%
                              42           72      0.79%   9817.89%
                              44           81      0.89%   9818.78%
                              46           81      0.89%   9819.67%
                              48           86      0.95%   9820.62%
                              50           78      0.86%   9821.48%
                              52           97      1.07%   9822.55%
                              54          142      1.56%   9824.11%
                              56          102      1.12%   9825.24%
                              58           89      0.98%   9826.22%
                              60          133      1.47%   9827.68%
                              62           92      1.01%   9828.70%
                              64          104      1.15%   9829.84%
                              66          126      1.39%   9831.23%
                              68          134      1.48%   9832.71%
                              70          115      1.27%   9833.97%
                              72           95      1.05%   9835.02%
                              74          101      1.11%   9836.13%
                              76           87      0.96%   9837.09%
                              78           97      1.07%   9838.16%
                              80           94      1.04%   9839.19%
                              82          112      1.23%   9840.43%
                              84          107      1.18%   9841.61%
                              86           90      0.99%   9842.60%
                              88          120      1.32%   9843.92%
                              90          104      1.15%   9845.07%
                              92          128      1.41%   9846.48%
                              94          134      1.48%   9847.95%
                              96          146      1.61%   9849.56%
                              98          137      1.51%   9851.07%
cpu.IQ:residence:IntAlu.overflows               13519                      
cpu.IQ:residence:IntAlu.max_value                1150                      
cpu.IQ:residence:IntAlu.end_dist

cpu.IQ:residence:IntMult.start_dist                            # cycles from dispatch to issue
cpu.IQ:residence:IntMult.samples                  271                      
cpu.IQ:residence:IntMult.min_value                  1                      
                               0            9    332.10%    332.10%
                               2           29   1070.11%   1402.21%
                               4           32   1180.81%   2583.03%
                               6           72   2656.83%   5239.85%
                               8           49   1808.12%   7047.97%
                              10           37   1365.31%   8413.28%
                              12           14    516.61%   8929.89%
                              14            9    332.10%   9261.99%
                              16            2     73.80%   9335.79%
                              18            0      0.00%   9335.79%
                              20            1     36.90%   9372.69%
                              22            2     73.80%   9446.49%
                              24            1     36.90%   9483.39%
                              26            0      0.00%   9483.39%
                              28            0      0.00%   9483.39%
                              30            0      0.00%   9483.39%
                              32            0      0.00%   9483.39%
                              34            0      0.00%   9483.39%
                              36            0      0.00%   9483.39%
                              38            0      0.00%   9483.39%
                              40            0      0.00%   9483.39%
                              42            0      0.00%   9483.39%
                              44            0      0.00%   9483.39%
                              46            0      0.00%   9483.39%
                              48            0      0.00%   9483.39%
                              50            0      0.00%   9483.39%
                              52            0      0.00%   9483.39%
                              54            0      0.00%   9483.39%
                              56            0      0.00%   9483.39%
                              58            0      0.00%   9483.39%
                              60            0      0.00%   9483.39%
                              62            0      0.00%   9483.39%
                              64            0      0.00%   9483.39%
                              66            0      0.00%   9483.39%
                              68            0      0.00%   9483.39%
                              70            0      0.00%   9483.39%
                              72            0      0.00%   9483.39%
                              74            0      0.00%   9483.39%
                              76            0      0.00%   9483.39%
                              78            0      0.00%   9483.39%
                              80            0      0.00%   9483.39%
                              82            0      0.00%   9483.39%
                              84            0      0.00%   9483.39%
                              86            1     36.90%   9520.30%
                              88            0      0.00%   9520.30%
                              90            1     36.90%   9557.20%
                              92            0      0.00%   9557.20%
                              94            0      0.00%   9557.20%
                              96            0      0.00%   9557.20%
                              98            1     36.90%   9594.10%
cpu.IQ:residence:IntMult.overflows                 11                      
cpu.IQ:residence:IntMult.max_value                138                      
cpu.IQ:residence:IntMult.end_dist

cpu.IQ:residence:IntDiv.start_dist                             # cycles from dispatch to issue
cpu.IQ:residence:IntDiv.samples                     0                      
cpu.IQ:residence:IntDiv.min_value                   0                      
                               0            0                      
                               2            0                      
                               4            0                      
                               6            0                      
                               8            0                      
                              10            0                      
                              12            0                      
                              14            0                      
                              16            0                      
                              18            0                      
                              20            0                      
                              22            0                      
                              24            0                      
                              26            0                      
                              28            0                      
                              30            0                      
                              32            0                      
                              34            0                      
                              36            0                      
                              38            0                      
                              40            0                      
                              42            0                      
                              44            0                      
                              46            0                      
                              48            0                      
                              50            0                      
                              52            0                      
                              54            0                      
                              56            0                      
                              58            0                      
                              60            0                      
                              62            0                      
                              64            0                      
                              66            0                      
                              68            0                      
                              70            0                      
                              72            0                      
                              74            0                      
                              76            0                      
                              78            0                      
                              80            0                      
                              82            0                      
                              84            0                      
                              86            0                      
                              88            0                      
                              90            0                      
                              92            0                      
                              94            0                      
                              96            0                      
                              98            0                      
cpu.IQ:residence:IntDiv.max_value                   0                      
cpu.IQ:residence:IntDiv.end_dist

cpu.IQ:residence:FloatAdd.start_dist                           # cycles from dispatch to issue
cpu.IQ:residence:FloatAdd.samples                  65                      
cpu.IQ:residence:FloatAdd.min_value                 1                      
                               0            6    923.08%    923.08%
                               2            8   1230.77%   2153.85%
                               4            1    153.85%   2307.69%
                               6            5    769.23%   3076.92%
                               8           11   1692.31%   4769.23%
                              10           14   2153.85%   6923.08%
                              12           10   1538.46%   8461.54%
                              14            4    615.38%   9076.92%
                              16            3    461.54%   9538.46%
                              18            0      0.00%   9538.46%
                              20            1    153.85%   9692.31%
                              22            0      0.00%   9692.31%
                              24            0      0.00%   9692.31%
                              26            0      0.00%   9692.31%
                              28            0      0.00%   9692.31%
                              30            0      0.00%   9692.31%
                              32            0      0.00%   9692.31%
                              34            0      0.00%   9692.31%
                              36            0      0.00%   9692.31%
                              38            0      0.00%   9692.31%
                              40            0      0.00%   9692.31%
                              42            0      0.00%   9692.31%
                              44            0      0.00%   9692.31%
                              46            0      0.00%   9692.31%
                              48            0      0.00%   9692.31%
                              50            0      0.00%   9692.31%
                              52            0      0.00%   9692.31%
                              54            0      0.00%   9692.31%
                              56            0      0.00%   9692.31%
                              58            0      0.00%   9692.31%
                              60            0      0.00%   9692.31%
                              62            0      0.00%   9692.31%
                              64            0      0.00%   9692.31%
                              66            0      0.00%   9692.31%
                              68            0      0.00%   9692.31%
                              70            0      0.00%   9692.31%
                              72            0      0.00%   9692.31%
                              74            0      0.00%   9692.31%
                              76            0      0.00%   9692.31%
                              78            0      0.00%   9692.31%
                              80            0      0.00%   9692.31%
                              82            0      0.00%   9692.31%
                              84            0      0.00%   9692.31%
                              86            0      0.00%   9692.31%
                              88            0      0.00%   9692.31%
                              90            0      0.00%   9692.31%
                              92            0      0.00%   9692.31%
                              94            0      0.00%   9692.31%
                              96            0      0.00%   9692.31%
                              98            0      0.00%   9692.31%
cpu.IQ:residence:FloatAdd.overflows                 2                      
cpu.IQ:residence:FloatAdd.max_value               149                      
cpu.IQ:residence:FloatAdd.end_dist

cpu.IQ:residence:FloatCmp.start_dist                           # cycles from dispatch to issue
cpu.IQ:residence:FloatCmp.samples                   6                      
cpu.IQ:residence:FloatCmp.min_value                 7                      
                               0            0      0.00%      0.00%
                               2            0      0.00%      0.00%
                               4            0      0.00%      0.00%
                               6            1   1666.67%   1666.67%
                               8            2   3333.33%   5000.00%
                              10            2   3333.33%   8333.33%
                              12            0      0.00%   8333.33%
                              14            0      0.00%   8333.33%
                              16            0      0.00%   8333.33%
                              18            0      0.00%   8333.33%
                              20            0      0.00%   8333.33%
                              22            0      0.00%   8333.33%
                              24            0      0.00%   8333.33%
                              26            0      0.00%   8333.33%
                              28            0      0.00%   8333.33%
                              30            0      0.00%   8333.33%
                              32            0      0.00%   8333.33%
                              34            0      0.00%   8333.33%
                              36            0      0.00%   8333.33%
                              38            0      0.00%   8333.33%
                              40            0      0.00%   8333.33%
                              42            0      0.00%   8333.33%
                              44            0      0.00%   8333.33%
                              46            0      0.00%   8333.33%
                              48            0      0.00%   8333.33%
                              50            0      0.00%   8333.33%
                              52            0      0.00%   8333.33%
                              54            0      0.00%   8333.33%
                              56            0      0.00%   8333.33%
                              58            0      0.00%   8333.33%
                              60            0      0.00%   8333.33%
                              62            0      0.00%   8333.33%
                              64            0      0.00%   8333.33%
                              66            0      0.00%   8333.33%
                              68            0      0.00%   8333.33%
                              70            0      0.00%   8333.33%
                              72            0      0.00%   8333.33%
                              74            0      0.00%   8333.33%
                              76            0      0.00%   8333.33%
                              78            0      0.00%   8333.33%
                              80            0      0.00%   8333.33%
                              82            0      0.00%   8333.33%
                              84            0      0.00%   8333.33%
                              86            0      0.00%   8333.33%
                              88            0      0.00%   8333.33%
                              90            0      0.00%   8333.33%
                              92            0      0.00%   8333.33%
                              94            0      0.00%   8333.33%
                              96            0      0.00%   8333.33%
                              98            0      0.00%   8333.33%
cpu.IQ:residence:FloatCmp.overflows                 1                      
cpu.IQ:residence:FloatCmp.max_value               147                      
cpu.IQ:residence:FloatCmp.end_dist

cpu.IQ:residence:FloatCvt.start_dist                           # cycles from dispatch to issue
cpu.IQ:residence:FloatCvt.samples                  49                      
cpu.IQ:residence:FloatCvt.min_value                 1                      
                               0            3    612.24%    612.24%
                               2            1    204.08%    816.33%
                               4           12   2448.98%   3265.31%
                               6            9   1836.73%   5102.04%
                               8           10   2040.82%   7142.86%
                              10            6   1224.49%   8367.35%
                              12            5   1020.41%   9387.76%
                              14            1    204.08%   9591.84%
                              16            0      0.00%   9591.84%
                              18            1    204.08%   9795.92%
                              20            0      0.00%   9795.92%
                              22            1    204.08%  10000.00%
                              24            0      0.00%  10000.00%
                              26            0      0.00%  10000.00%
                              28            0      0.00%  10000.00%
                              30            0      0.00%  10000.00%
                              32            0      0.00%  10000.00%
                              34            0      0.00%  10000.00%
                              36            0      0.00%  10000.00%
                              38            0      0.00%  10000.00%
                              40            0      0.00%  10000.00%
                              42            0      0.00%  10000.00%
                              44            0      0.00%  10000.00%
                              46            0      0.00%  10000.00%
                              48            0      0.00%  10000.00%
                              50            0      0.00%  10000.00%
                              52            0      0.00%  10000.00%
                              54            0      0.00%  10000.00%
                              56            0      0.00%  10000.00%
                              58            0      0.00%  10000.00%
                              60            0      0.00%  10000.00%
                              62            0      0.00%  10000.00%
                              64            0      0.00%  10000.00%
                              66            0      0.00%  10000.00%
                              68            0      0.00%  10000.00%
                              70            0      0.00%  10000.00%
                              72            0      0.00%  10000.00%
                              74            0      0.00%  10000.00%
                              76            0      0.00%  10000.00%
                              78            0      0.00%  10000.00%
                              80            0      0.00%  10000.00%
                              82            0      0.00%  10000.00%
                              84            0      0.00%  10000.00%
                              86            0      0.00%  10000.00%
                              88            0      0.00%  10000.00%
                              90            0      0.00%  10000.00%
                              92            0      0.00%  10000.00%
                              94            0      0.00%  10000.00%
                              96            0      0.00%  10000.00%
                              98            0      0.00%  10000.00%
cpu.IQ:residence:FloatCvt.max_value                22                      
cpu.IQ:residence:FloatCvt.end_dist

cpu.IQ:residence:FloatMult.start_dist                          # cycles from dispatch to issue
cpu.IQ:residence:FloatMult.samples                  5                      
cpu.IQ:residence:FloatMult.min_value                6                      
                               0            0      0.00%      0.00%
                               2            0      0.00%      0.00%
                               4            0      0.00%      0.00%
                               6            2   4000.00%   4000.00%
                               8            2   4000.00%   8000.00%
                              10            0      0.00%   8000.00%
                              12            0      0.00%   8000.00%
                              14            0      0.00%   8000.00%
                              16            0      0.00%   8000.00%
                              18            0      0.00%   8000.00%
                              20            0      0.00%   8000.00%
                              22            0      0.00%   8000.00%
                              24            0      0.00%   8000.00%
                              26            0      0.00%   8000.00%
                              28            0      0.00%   8000.00%
                              30            0      0.00%   8000.00%
                              32            0      0.00%   8000.00%
                              34            0      0.00%   8000.00%
                              36            0      0.00%   8000.00%
                              38            0      0.00%   8000.00%
                              40            0      0.00%   8000.00%
                              42            0      0.00%   8000.00%
                              44            0      0.00%   8000.00%
                              46            0      0.00%   8000.00%
                              48            0      0.00%   8000.00%
                              50            0      0.00%   8000.00%
                              52            0      0.00%   8000.00%
                              54            0      0.00%   8000.00%
                              56            0      0.00%   8000.00%
                              58            0      0.00%   8000.00%
                              60            0      0.00%   8000.00%
                              62            0      0.00%   8000.00%
                              64            0      0.00%   8000.00%
                              66            0      0.00%   8000.00%
                              68            0      0.00%   8000.00%
                              70            0      0.00%   8000.00%
                              72            0      0.00%   8000.00%
                              74            0      0.00%   8000.00%
                              76            0      0.00%   8000.00%
                              78            0      0.00%   8000.00%
                              80            0      0.00%   8000.00%
                              82            0      0.00%   8000.00%
                              84            0      0.00%   8000.00%
                              86            0      0.00%   8000.00%
                              88            0      0.00%   8000.00%
                              90            0      0.00%   8000.00%
                              92            0      0.00%   8000.00%
                              94            0      0.00%   8000.00%
                              96            0      0.00%   8000.00%
                              98            0      0.00%   8000.00%
cpu.IQ:residence:FloatMult.overflows                1                      
cpu.IQ:residence:FloatMult.max_value              144                      
cpu.IQ:residence:FloatMult.end_dist

cpu.IQ:residence:FloatDiv.start_dist                           # cycles from dispatch to issue
cpu.IQ:residence:FloatDiv.samples                   2                      
cpu.IQ:residence:FloatDiv.min_value                 5                      
                               0            0      0.00%      0.00%
                               2            0      0.00%      0.00%
                               4            1   5000.00%   5000.00%
                               6            0      0.00%   5000.00%
                               8            1   5000.00%  10000.00%
                              10            0      0.00%  10000.00%
                              12            0      0.00%  10000.00%
                              14            0      0.00%  10000.00%
                              16            0      0.00%  10000.00%
                              18            0      0.00%  10000.00%
                              20            0      0.00%  10000.00%
                              22            0      0.00%  10000.00%
                              24            0      0.00%  10000.00%
                              26            0      0.00%  10000.00%
                              28            0      0.00%  10000.00%
                              30            0      0.00%  10000.00%
                              32            0      0.00%  10000.00%
                              34            0      0.00%  10000.00%
                              36            0      0.00%  10000.00%
                              38            0      0.00%  10000.00%
                              40            0      0.00%  10000.00%
                              42            0      0.00%  10000.00%
                              44            0      0.00%  10000.00%
                              46            0      0.00%  10000.00%
                              48            0      0.00%  10000.00%
                              50            0      0.00%  10000.00%
                              52            0      0.00%  10000.00%
                              54            0      0.00%  10000.00%
                              56            0      0.00%  10000.00%
                              58            0      0.00%  10000.00%
                              60            0      0.00%  10000.00%
                              62            0      0.00%  10000.00%
                              64            0      0.00%  10000.00%
                              66            0      0.00%  10000.00%
                              68            0      0.00%  10000.00%
                              70            0      0.00%  10000.00%
                              72            0      0.00%  10000.00%
                              74            0      0.00%  10000.00%
                              76            0      0.00%  10000.00%
                              78            0      0.00%  10000.00%
                              80            0      0.00%  10000.00%
[...]
cpu.l2.read_mshr_misses_3                        2185                       # number of read MSHR misses
cpu.l2.replacements                                 0                       # number of replacements
cpu.l2.replacements_0                               0                       # number of replacements
cpu.l2.replacements_1                               0                       # number of replacements
cpu.l2.replacements_2                               0                       # number of replacements
cpu.l2.replacements_3                               0                       # number of replacements
cpu.l2.sampled_refs                                 0                       # Sample count of references to valid blocks.
cpu.l2.soft_prefetch_mshr_full                      0                       # number of mshr full events for SW prefetching instrutions
cpu.l2.soft_prefetch_mshr_full_0                    0                       # number of mshr full events for SW prefetching instrutions
cpu.l2.soft_prefetch_mshr_full_1                    0                       # number of mshr full events for SW prefetching instrutions
cpu.l2.soft_prefetch_mshr_full_2                    0                       # number of mshr full events for SW prefetching instrutions
cpu.l2.soft_prefetch_mshr_full_3                    0                       # number of mshr full events for SW prefetching instrutions
cpu.l2.tagsinuse                          3550.655168                       # Cycle average of tags in use
cpu.l2.total_refs                                   0                       # Total number of references to valid blocks.
cpu.l2.warmup_cycle                                 0                       # Cycle when the warmup percentage was hit.
cpu.l2.writeback_accesses                        1082                       # number of writeback accesses(hits+misses)
cpu.l2.writeback_accesses_0                         6                       # number of writeback accesses(hits+misses)
cpu.l2.writeback_accesses_1                       125                       # number of writeback accesses(hits+misses)
cpu.l2.writeback_accesses_2                       214                       # number of writeback accesses(hits+misses)
cpu.l2.writeback_accesses_3                       737                       # number of writeback accesses(hits+misses)
cpu.l2.writeback_hits                             871                       # number of writeback hits
cpu.l2.writeback_hits_0                             6                       # number of writeback hits
cpu.l2.writeback_hits_1                           116                       # number of writeback hits
cpu.l2.writeback_hits_2                           214                       # number of writeback hits
cpu.l2.writeback_hits_3                           535                       # number of writeback hits
cpu.l2.writeback_miss_rate                   0.195009                       # miss rate for writeback accesses
cpu.l2.writeback_miss_rate_1                 0.072000                       # miss rate for writeback accesses
cpu.l2.writeback_miss_rate_3                 0.274084                       # miss rate for writeback accesses
cpu.l2.writeback_misses                           211                       # number of writeback misses
cpu.l2.writeback_misses_1                           9                       # number of writeback misses
cpu.l2.writeback_misses_3                         202                       # number of writeback misses
cpu.l2.writeback_mshr_miss_rate              0.195009                       # mshr miss rate for writeback accesses
cpu.l2.writeback_mshr_miss_rate_1            0.072000                       # mshr miss rate for writeback accesses
cpu.l2.writeback_mshr_miss_rate_3            0.274084                       # mshr miss rate for writeback accesses
cpu.l2.writeback_mshr_misses                      211                       # number of writeback MSHR misses
cpu.l2.writeback_mshr_misses_1                      9                       # number of writeback MSHR misses
cpu.l2.writeback_mshr_misses_3                    202                       # number of writeback MSHR misses
cpu.l2.writebacks                                   0                       # number of writebacks
cpu.l2.writebacks_0                                 0                       # number of writebacks
cpu.l2.writebacks_1                                 0                       # number of writebacks
cpu.l2.writebacks_2                                 0                       # number of writebacks
cpu.l2.writebacks_3                                 0                       # number of writebacks
cpu.numCycles                                  334902                       # number of cpu cycles simulated
cpu.toL2Bus.addr_idle_cycles                   323299                       # number of cycles bus was idle
cpu.toL2Bus.addr_idle_fraction               0.965357                       # fraction of time addr bus was idle
cpu.toL2Bus.addr_queued                      3.548301                       # average queueing delay seen by bus request
cpu.toL2Bus.addr_queued_0                    3.877333                       # average queueing delay seen by bus request
cpu.toL2Bus.addr_queued_1                    3.675933                       # average queueing delay seen by bus request
cpu.toL2Bus.addr_queued_2                    3.698150                       # average queueing delay seen by bus request
cpu.toL2Bus.addr_queued_3                    3.322063                       # average queueing delay seen by bus request
cpu.toL2Bus.addr_queued_cycles                  41139                       # total number of queued cycles for all requests
cpu.toL2Bus.addr_queued_cycles_0                 2908                       # total number of queued cycles for all requests
cpu.toL2Bus.addr_queued_cycles_1                18909                       # total number of queued cycles for all requests
cpu.toL2Bus.addr_queued_cycles_2                 3798                       # total number of queued cycles for all requests
cpu.toL2Bus.addr_queued_cycles_3                15524                       # total number of queued cycles for all requests
cpu.toL2Bus.addr_requests                       11594                       # number of transmissions on bus
cpu.toL2Bus.addr_requests_0                       750                       # number of transmissions on bus
cpu.toL2Bus.addr_requests_1                      5144                       # number of transmissions on bus
cpu.toL2Bus.addr_requests_2                      1027                       # number of transmissions on bus
cpu.toL2Bus.addr_requests_3                      4673                       # number of transmissions on bus
cpu.toL2Bus.bus_blocked                             0                       # number of times bus was blocked
cpu.toL2Bus.bus_blocked_cycles                      0                       # number of cycles bus was blocked
cpu.toL2Bus.bus_blocked_fraction                    0                       # fraction of time bus was blocked
cpu.toL2Bus.data_idle_cycles                   323284                       # number of cycles bus was idle
cpu.toL2Bus.data_idle_fraction               0.965312                       # fraction of time data bus was idle
cpu.toL2Bus.data_queued                      1.024548                       # average queueing delay seen by bus request
cpu.toL2Bus.data_queued_0                    1.009421                       # average queueing delay seen by bus request
cpu.toL2Bus.data_queued_1                    1.032277                       # average queueing delay seen by bus request
cpu.toL2Bus.data_queued_2                    1.014760                       # average queueing delay seen by bus request
cpu.toL2Bus.data_queued_3                    1.019568                       # average queueing delay seen by bus request
cpu.toL2Bus.data_queued_cycles                  10768                       # total number of queued cycles for all requests
cpu.toL2Bus.data_queued_cycles_0                  750                       # total number of queued cycles for all requests
cpu.toL2Bus.data_queued_cycles_1                 5181                       # total number of queued cycles for all requests
cpu.toL2Bus.data_queued_cycles_2                  825                       # total number of queued cycles for all requests
cpu.toL2Bus.data_queued_cycles_3                 4012                       # total number of queued cycles for all requests
cpu.toL2Bus.data_requests                       10510                       # number of transmissions on bus
cpu.toL2Bus.data_requests_0                       743                       # number of transmissions on bus
cpu.toL2Bus.data_requests_1                      5019                       # number of transmissions on bus
cpu.toL2Bus.data_requests_2                       813                       # number of transmissions on bus
cpu.toL2Bus.data_requests_3                      3935                       # number of transmissions on bus
cpu.toL2Bus.null_grants                           304                       # number of null grants (wasted cycles)
cpu.workload0.MainMem.page_count                    0                       # total number of pages allocated
cpu.workload0.MainMem.page_mem                      0                       # total size of memory pages allocated
cpu.workload0.MainMem.ptab_accesses           1172100                       # total page table accessess
cpu.workload0.MainMem.ptab_miss_rate           0.0107                       # first level page table miss rate
cpu.workload0.MainMem.ptab_misses               12518                       # total first level page table misses
cpu.workload0.PROG:num_syscalls                   514                       # Number of system calls
cpu.workload1.MainMem.page_count                    1                       # total number of pages allocated
cpu.workload1.MainMem.page_mem                      8                       # total size of memory pages allocated
cpu.workload1.MainMem.ptab_accesses            377878                       # total page table accessess
cpu.workload1.MainMem.ptab_miss_rate           0.0071                       # first level page table miss rate
cpu.workload1.MainMem.ptab_misses                2678                       # total first level page table misses
cpu.workload1.PROG:num_syscalls                     4                       # Number of system calls
cpu.workload2.MainMem.page_count                    7                       # total number of pages allocated
cpu.workload2.MainMem.page_mem                     56                       # total size of memory pages allocated
cpu.workload2.MainMem.ptab_accesses            943431                       # total page table accessess
cpu.workload2.MainMem.ptab_miss_rate           0.0943                       # first level page table miss rate
cpu.workload2.MainMem.ptab_misses               88928                       # total first level page table misses
cpu.workload2.PROG:num_syscalls                    11                       # Number of system calls
cpu.workload3.MainMem.page_count                   21                       # total number of pages allocated
cpu.workload3.MainMem.page_mem                    168                       # total size of memory pages allocated
cpu.workload3.MainMem.ptab_accesses            748829                       # total page table accessess
cpu.workload3.MainMem.ptab_miss_rate           0.0035                       # first level page table miss rate
cpu.workload3.MainMem.ptab_misses                2617                       # total first level page table misses
cpu.workload3.PROG:num_syscalls                     8                       # Number of system calls
cpuinst_class_dist.start_dist
                   All ops ready            0      0.00%            # Operand status at dispatch
                One op not ready            0      0.00%            # Operand status at dispatch
           None rdy, mult chains            0      0.00%            # Operand status at dispatch
           None rdy, one chained            0      0.00%            # Operand status at dispatch
        None rdy, all self-timed            0      0.00%            # Operand status at dispatch
cpuinst_class_dist.end_dist
host_inst_rate                                  71220                       # Simulator instruction rate (inst/s)
host_mem_usage                                  21896                       # Number of bytes of host memory used
host_seconds                                    18.23                       # Real time elapsed on the host
host_tick_rate                                  18370                       # Simulator tick rate (ticks/s)
ram.accesses                                     5998                       # total number of accesses
ram.accesses_0                                    283                       # total number of accesses
ram.accesses_1                                   2718                       # total number of accesses
ram.accesses_2                                    610                       # total number of accesses
ram.accesses_3                                   2387                       # total number of accesses
ram.bytes_requested                                 0                       # total number of bytes requested
ram.bytes_requested_0                               0                       # total number of bytes requested
ram.bytes_requested_1                               0                       # total number of bytes requested
ram.bytes_requested_2                               0                       # total number of bytes requested
ram.bytes_requested_3                               0                       # total number of bytes requested
ram.bytes_sent                                      0                       # total number of bytes sent
ram.bytes_sent_0                                    0                       # total number of bytes sent
ram.bytes_sent_1                                    0                       # total number of bytes sent
ram.bytes_sent_2                                    0                       # total number of bytes sent
ram.bytes_sent_3                                    0                       # total number of bytes sent
ram.compressed_responses                            0                       # total number of accesses that are compressed
ram.compressed_responses_0                          0                       # total number of accesses that are compressed
ram.compressed_responses_1                          0                       # total number of accesses that are compressed
ram.compressed_responses_2                          0                       # total number of accesses that are compressed
ram.compressed_responses_3                          0                       # total number of accesses that are compressed
sim_freq                                    200000000                       # Frequency of simulated ticks
sim_insts                                     1298396                       # Number of instructions simulated
sim_seconds                                  0.001675                       # Number of seconds simulated
sim_ticks                                      334901                       # Number of ticks simulated
toMemBus.addr_idle_cycles                      328837                       # number of cycles bus was idle
toMemBus.addr_idle_fraction                  0.981893                       # fraction of time addr bus was idle
toMemBus.addr_queued                        11.025175                       # average queueing delay seen by bus request
toMemBus.addr_queued_0                       9.819788                       # average queueing delay seen by bus request
toMemBus.addr_queued_1                      11.021707                       # average queueing delay seen by bus request
toMemBus.addr_queued_2                      10.778689                       # average queueing delay seen by bus request
toMemBus.addr_queued_3                      11.235023                       # average queueing delay seen by bus request
toMemBus.addr_queued_cycles                     66129                       # total number of queued cycles for all requests
toMemBus.addr_queued_cycles_0                    2779                       # total number of queued cycles for all requests
toMemBus.addr_queued_cycles_1                   29957                       # total number of queued cycles for all requests
toMemBus.addr_queued_cycles_2                    6575                       # total number of queued cycles for all requests
toMemBus.addr_queued_cycles_3                   26818                       # total number of queued cycles for all requests
toMemBus.addr_requests                           5998                       # number of transmissions on bus
toMemBus.addr_requests_0                          283                       # number of transmissions on bus
toMemBus.addr_requests_1                         2718                       # number of transmissions on bus
toMemBus.addr_requests_2                          610                       # number of transmissions on bus
toMemBus.addr_requests_3                         2387                       # number of transmissions on bus
toMemBus.bus_blocked                                0                       # number of times bus was blocked
toMemBus.bus_blocked_cycles                         0                       # number of cycles bus was blocked
toMemBus.bus_blocked_fraction                       0                       # fraction of time bus was blocked
toMemBus.data_idle_cycles                      310851                       # number of cycles bus was idle
toMemBus.data_idle_fraction                  0.928188                       # fraction of time data bus was idle
toMemBus.data_queued                         2.155029                       # average queueing delay seen by bus request
toMemBus.data_queued_0                       5.275618                       # average queueing delay seen by bus request
toMemBus.data_queued_1                       2.060170                       # average queueing delay seen by bus request
toMemBus.data_queued_2                       2.181967                       # average queueing delay seen by bus request
toMemBus.data_queued_3                       1.860806                       # average queueing delay seen by bus request
toMemBus.data_queued_cycles                     12469                       # total number of queued cycles for all requests
toMemBus.data_queued_cycles_0                    1493                       # total number of queued cycles for all requests
toMemBus.data_queued_cycles_1                    5581                       # total number of queued cycles for all requests
toMemBus.data_queued_cycles_2                    1331                       # total number of queued cycles for all requests
toMemBus.data_queued_cycles_3                    4064                       # total number of queued cycles for all requests
toMemBus.data_requests                           5786                       # number of transmissions on bus
toMemBus.data_requests_0                          283                       # number of transmissions on bus
toMemBus.data_requests_1                         2709                       # number of transmissions on bus
toMemBus.data_requests_2                          610                       # number of transmissions on bus
toMemBus.data_requests_3                         2184                       # number of transmissions on bus
toMemBus.null_grants                                0                       # number of null grants (wasted cycles)

---------- End Simulation Statistics   ----------
