
---------- Begin Simulation Statistics ----------
cpu0.COM:IPB                                 6.409344                       # Committed instructions per branch
cpu0.COM:IPC                                 0.795483                       # Committed instructions per cycle
cpu0.COM:branches                               15603                       # Number of branches committed
cpu0.COM:bw_lim_avg                      <err: div-0>                       # Avg number not committed in cycles BW limited
cpu0.COM:bw_lim_events                              0                       # number cycles where commit BW limit reached
cpu0.COM:bw_lim_rate                           0.0000                       # Average number not committed due to BW (over all cycles)
cpu0.COM:bw_lim_stdev_0_mean             <err: div-0>                       # standard deviation of bw_lim_avg value
cpu0.COM:bw_lim_stdev_0_stdev            <err: div-0>                       # standard deviation of bw_lim_avg value
**Ignore: cpu0.COM:bw_lim_stdev_0_TOT          0.0000                       # standard deviation of bw_lim_avg value
cpu0.COM:bw_limited                                 0                       # number of insts not committed due to BW limits
cpu0.COM:committed_per_cycle.start_dist                        # Number of insts commited each cycle
cpu0.COM:committed_per_cycle.samples            20119                      
cpu0.COM:committed_per_cycle.min_value              0                      
                               0          194     96.43%           
                               1         4758   2364.93%           
                               2         2086   1036.83%           
                               3         1219    605.89%           
                               4          827    411.05%           
                               5          702    348.92%           
                               6          454    225.66%           
                               7          497    247.03%           
                               8         9382   4663.25%           
cpu0.COM:committed_per_cycle.max_value              8                      
cpu0.COM:committed_per_cycle.end_dist

cpu0.COM:count                                 100005                       # Number of instructions committed
cpu0.COM:loads                                  20084                       # Number of loads committed
cpu0.COM:membars                                   56                       # Number of memory barriers committed
cpu0.COM:refs                                   38811                       # Number of memory references committed
cpu0.COM:stores                                 18727                       # Number of stores committed
cpu0.COM:swp_count                                659                       # Number of s/w prefetches committed
cpu0.DDQ:count                                6705497                       # cum count of instructions
cpu0.DDQ:rate                                      53                       # average number of instructions
cpu0.DIS:chain_creation.start_dist
     Inst has no outstanding IDEPS                  0      0.00%            # Reason that chain head was created
      IDEP chain reached max depth                  0      0.00%            # Reason that chain head was created
                    Inst is a load                  0      0.00%            # Reason that chain head was created
  Chain has multiple chained IDEPS                  0      0.00%            # Reason that chain head was created
cpu0.DIS:chain_creation.end_dist
cpu0.DIS:chain_head_frac                            0                       # fraction of insts that are chain heads
cpu0.DIS:chain_heads                                0                       # number insts that are chain heads
cpu0.DIS:chains_insuf                               0                       # number of times thread had insuf chains
cpu0.DIS:chains_insuf_rate                          0                       # rate that thread had insuf chains
cpu0.DIS:count                                 146331                       # cumulative count of dispatched insts
cpu0.DIS:insufficient_chains                        0                       # Number of instances where dispatch stopped
cpu0.DIS:mod_n_stall_avg_free            <err: div-0>                       # avg free slots per cycle
cpu0.DIS:mod_n_stall_frac                           0                       # avg stalls per cycle
cpu0.DIS:mod_n_stall_free                           0                       # free slots when dispatch stalled due to mod-n
cpu0.DIS:mod_n_stalls                               0                       # cycles where dispatch stalled due to mod-n
cpu0.DIS:one_rdy_insts                              0                       # number of 2-op insts w/ one rdy op
cpu0.DIS:one_rdy_ratio                   <err: div-0>                       # fraction of 2-op insts w/ one ready op
cpu0.DIS:op_count                              202965                       # number of operations dispatched
cpu0.DIS:op_rate                             1.614472                       # dispatched operations per cycle
cpu0.DIS:rate                                1.163981                       # dispatched_insts per cycle
cpu0.DIS:second_choice_clust                        0                       # Number of instructions dispatched to second-choice cluster
cpu0.DIS:second_choice_stall                        0                       # Number of instructions stalled when first choice not available
cpu0.DIS:serialize_stall_cycles                     0                       # count of cycles dispatch stalled for serializing inst
cpu0.DIS:serializing_insts                          0                       # count of serializing insts dispatched
cpu0.DIS:two_input_insts                            0                       # Number of two input instructions queued
cpu0.DIS:two_input_ratio                            0                       # fraction of all insts having 2 inputs
cpu0.FETCH:branch_count                         30347                       # Number of branches fetched
cpu0.FETCH:branch_rate                       0.241393                       # Number of branch fetches per cycle
cpu0.FETCH:chance_pct                               1                       # Percentage of all fetch chances
cpu0.FETCH:chances                              35419                       # Number of fetch opportunities
cpu0.FETCH:choice                               35419                       # Number of times we fetched from our first choice
cpu0.FETCH:count                               248611                       # Number of instructions fetched
cpu0.FETCH:decisions                            35419                       # number of times the fetch stage chose between threads
cpu0.FETCH:idle_cycles                          90297                       # number of cycles where fetch stage was idle
cpu0.FETCH:idle_icache_blocked_cycles               0                       # number of cycles where fetch was idle due to icache blocked
cpu0.FETCH:idle_rate                            71.83                       # percent of cycles fetch stage was idle
cpu0.FETCH:prio_changes                             0                       # Number of times priorities were changed
cpu0.FETCH:rate                              1.977561                       # Number of inst fetches per cycle
cpu0.FETCH:rate_dist.start_dist                                # Number of instructions fetched each cycle (Total)
cpu0.FETCH:rate_dist.samples                    35419                      
cpu0.FETCH:rate_dist.min_value                      0                      
                               0            4      1.13%           
                               1         1918    541.52%           
                               2         1538    434.23%           
                               3         1032    291.37%           
                               4          717    202.43%           
                               5          457    129.03%           
                               6          924    260.88%           
                               7          808    228.13%           
                               8        28021   7911.29%           
cpu0.FETCH:rate_dist.max_value                      8                      
cpu0.FETCH:rate_dist.end_dist

cpu0.FETCH:rate_dist_0.start_dist                              # Number of instructions fetched each cycle (Thread 0)
cpu0.FETCH:rate_dist_0.samples                  35419                      
cpu0.FETCH:rate_dist_0.min_value                    0                      
                               0            4      1.13%           
                               1         1918    541.52%           
                               2         1538    434.23%           
                               3         1032    291.37%           
                               4          717    202.43%           
                               5          457    129.03%           
                               6          924    260.88%           
                               7          808    228.13%           
                               8        28021   7911.29%           
cpu0.FETCH:rate_dist_0.max_value                    8                      
cpu0.FETCH:rate_dist_0.end_dist

cpu0.IFQ:count                                1705693                       # cumulative IFQ occupancy
cpu0.IFQ:full_count                             33611                       # cumulative IFQ full count
cpu0.IFQ:full_rate                          26.735658                       # fraction of time (cycle's) IFQ was full
cpu0.IFQ:latency                            11.656402                       # avg IFQ occupant latency (cycle's)
cpu0.IFQ:occupancy                          13.567827                       # avg IFQ occupancy (inst's)
cpu0.IFQ:qfull_iq_occ                          376538                       # Number of insts in IQ when fetch-queue full
cpu0.IFQ:qfull_iq_occ_dist_0.start_dist                        # Number of insts in IQ when fetch-queue full
cpu0.IFQ:qfull_iq_occ_dist_0.samples            22212                      
cpu0.IFQ:qfull_iq_occ_dist_0.min_value              0                      
                               0        14015   6309.65%           
                              10         1013    456.06%           
                              20         1970    886.91%           
                              30          770    346.66%           
                              40          678    305.24%           
                              50          717    322.80%           
                              60         3049   1372.68%           
cpu0.IFQ:qfull_iq_occ_dist_0.max_value             64                      
cpu0.IFQ:qfull_iq_occ_dist_0.end_dist

cpu0.IFQ:qfull_rob_occ                        4088444                       # Number of insts in ROB when fetch-queue full
cpu0.IFQ:qfull_rob_occ_dist_0.start_dist                       # Number of insts in ROB when fetch-queue full
cpu0.IFQ:qfull_rob_occ_dist_0.samples           22212                      
cpu0.IFQ:qfull_rob_occ_dist_0.min_value            52                      
                               0            0      0.00%           
                              10            0      0.00%           
                              20            0      0.00%           
                              30            0      0.00%           
                              40            0      0.00%           
                              50           44     19.81%           
                              60          101     45.47%           
                              70          212     95.44%           
                              80          381    171.53%           
                              90          124     55.83%           
                             100           20      9.00%           
                             110          250    112.55%           
                             120          292    131.46%           
                             130          186     83.74%           
                             140         1832    824.78%           
                             150           24     10.80%           
                             160           46     20.71%           
                             170           12      5.40%           
                             180          329    148.12%           
                             190        18359   8265.35%           
                             200            0      0.00%           
cpu0.IFQ:qfull_rob_occ_dist_0.max_value           196                      
cpu0.IFQ:qfull_rob_occ_dist_0.end_dist

cpu0.IQ:cap_events                                  0                       # number of cycles where IQ cap was active
cpu0.IQ:cap_inst                                    0                       # number of instructions held up by IQ cap
cpu0.IQ:residence:(null).start_dist                            # cycles from dispatch to issue
cpu0.IQ:residence:(null).samples                    0                      
cpu0.IQ:residence:(null).min_value                  0                      
                               0            0                      
                               2            0                      
                               4            0                      
                               6            0                      
                               8            0                      
                              10            0                      
                              12            0                      
                              14            0                      
                              16            0                      
                              18            0                      
                              20            0                      
                              22            0                      
                              24            0                      
                              26            0                      
                              28            0                      
                              30            0                      
                              32            0                      
                              34            0                      
                              36            0                      
                              38            0                      
                              40            0                      
                              42            0                      
                              44            0                      
                              46            0                      
                              48            0                      
                              50            0                      
                              52            0                      
                              54            0                      
                              56            0                      
                              58            0                      
                              60            0                      
                              62            0                      
                              64            0                      
                              66            0                      
                              68            0                      
                              70            0                      
                              72            0                      
                              74            0                      
                              76            0                      
                              78            0                      
                              80            0                      
                              82            0                      
                              84            0                      
                              86            0                      
                              88            0                      
                              90            0                      
                              92            0                      
                              94            0                      
                              96            0                      
                              98            0                      
cpu0.IQ:residence:(null).max_value                  0                      
cpu0.IQ:residence:(null).end_dist

cpu0.IQ:residence:IntAlu.start_dist                            # cycles from dispatch to issue
cpu0.IQ:residence:IntAlu.samples                75526                      
cpu0.IQ:residence:IntAlu.min_value                  1                      
                               0        15651   2072.27%   2072.27%
                               2        14757   1953.90%   4026.16%
                               4         9964   1319.28%   5345.44%
                               6         7202    953.58%   6299.02%
                               8         3849    509.63%   6808.65%
                              10         3405    450.84%   7259.49%
                              12         2330    308.50%   7567.99%
                              14         2925    387.28%   7955.27%
                              16         2128    281.76%   8237.03%
                              18         2504    331.54%   8568.57%
                              20         2139    283.21%   8851.79%
                              22         1506    199.40%   9051.19%
                              24         1663    220.19%   9271.38%
                              26         1345    178.08%   9449.46%
                              28          942    124.73%   9574.19%
                              30          662     87.65%   9661.84%
                              32          488     64.61%   9726.45%
                              34          177     23.44%   9749.89%
                              36           29      3.84%   9753.73%
                              38           36      4.77%   9758.49%
                              40           16      2.12%   9760.61%
                              42            5      0.66%   9761.27%
                              44            5      0.66%   9761.94%
                              46            7      0.93%   9762.86%
                              48            3      0.40%   9763.26%
                              50           10      1.32%   9764.58%
                              52           82     10.86%   9775.44%
                              54           44      5.83%   9781.27%
                              56            2      0.26%   9781.53%
                              58            0      0.00%   9781.53%
                              60            1      0.13%   9781.66%
                              62            2      0.26%   9781.93%
                              64            2      0.26%   9782.19%
                              66            0      0.00%   9782.19%
                              68           13      1.72%   9783.92%
                              70            1      0.13%   9784.05%
                              72            0      0.00%   9784.05%
                              74            1      0.13%   9784.18%
                              76           40      5.30%   9789.48%
                              78            3      0.40%   9789.87%
                              80            3      0.40%   9790.27%
                              82            1      0.13%   9790.40%
                              84           27      3.57%   9793.98%
                              86            6      0.79%   9794.77%
                              88            3      0.40%   9795.17%
                              90            0      0.00%   9795.17%
                              92            1      0.13%   9795.30%
                              94            3      0.40%   9795.70%
                              96            0      0.00%   9795.70%
                              98            5      0.66%   9796.36%
cpu0.IQ:residence:IntAlu.overflows               1538                      
cpu0.IQ:residence:IntAlu.max_value                304                      
cpu0.IQ:residence:IntAlu.end_dist

cpu0.IQ:residence:IntMult.start_dist                           # cycles from dispatch to issue
cpu0.IQ:residence:IntMult.samples                  83                      
cpu0.IQ:residence:IntMult.min_value                 1                      
                               0            1    120.48%    120.48%
                               2            0      0.00%    120.48%
                               4            1    120.48%    240.96%
                               6            3    361.45%    602.41%
                               8            1    120.48%    722.89%
                              10            2    240.96%    963.86%
                              12           34   4096.39%   5060.24%
                              14            3    361.45%   5421.69%
                              16           27   3253.01%   8674.70%
                              18            9   1084.34%   9759.04%
                              20            0      0.00%   9759.04%
                              22            0      0.00%   9759.04%
                              24            0      0.00%   9759.04%
                              26            0      0.00%   9759.04%
                              28            0      0.00%   9759.04%
                              30            0      0.00%   9759.04%
                              32            0      0.00%   9759.04%
                              34            0      0.00%   9759.04%
                              36            0      0.00%   9759.04%
                              38            0      0.00%   9759.04%
                              40            0      0.00%   9759.04%
                              42            0      0.00%   9759.04%
                              44            0      0.00%   9759.04%
                              46            0      0.00%   9759.04%
                              48            0      0.00%   9759.04%
                              50            0      0.00%   9759.04%
                              52            0      0.00%   9759.04%
                              54            0      0.00%   9759.04%
                              56            0      0.00%   9759.04%
                              58            0      0.00%   9759.04%
                              60            0      0.00%   9759.04%
                              62            0      0.00%   9759.04%
                              64            0      0.00%   9759.04%
                              66            0      0.00%   9759.04%
                              68            0      0.00%   9759.04%
                              70            0      0.00%   9759.04%
                              72            0      0.00%   9759.04%
                              74            0      0.00%   9759.04%
                              76            0      0.00%   9759.04%
                              78            0      0.00%   9759.04%
                              80            0      0.00%   9759.04%
                              82            0      0.00%   9759.04%
                              84            0      0.00%   9759.04%
                              86            0      0.00%   9759.04%
                              88            0      0.00%   9759.04%
                              90            0      0.00%   9759.04%
                              92            0      0.00%   9759.04%
                              94            0      0.00%   9759.04%
                              96            0      0.00%   9759.04%
                              98            0      0.00%   9759.04%
cpu0.IQ:residence:IntMult.overflows                 2                      
cpu0.IQ:residence:IntMult.max_value               141                      
cpu0.IQ:residence:IntMult.end_dist

cpu0.IQ:residence:IntDiv.start_dist                            # cycles from dispatch to issue
cpu0.IQ:residence:IntDiv.samples                    0                      
cpu0.IQ:residence:IntDiv.min_value                  0                      
                               0            0                      
                               2            0                      
                               4            0                      
                               6            0                      
                               8            0                      
                              10            0                      
                              12            0                      
                              14            0                      
                              16            0                      
                              18            0                      
                              20            0                      
                              22            0                      
                              24            0                      
                              26            0                      
                              28            0                      
                              30            0                      
                              32            0                      
                              34            0                      
                              36            0                      
                              38            0                      
                              40            0                      
                              42            0                      
                              44            0                      
                              46            0                      
                              48            0                      
                              50            0                      
                              52            0                      
                              54            0                      
                              56            0                      
                              58            0                      
                              60            0                      
                              62            0                      
                              64            0                      
                              66            0                      
                              68            0                      
                              70            0                      
                              72            0                      
                              74            0                      
                              76            0                      
                              78            0                      
                              80            0                      
                              82            0                      
                              84            0                      
                              86            0                      
                              88            0                      
                              90            0                      
                              92            0                      
                              94            0                      
                              96            0                      
                              98            0                      
cpu0.IQ:residence:IntDiv.max_value                  0                      
cpu0.IQ:residence:IntDiv.end_dist

cpu0.IQ:residence:FloatAdd.start_dist                          # cycles from dispatch to issue
cpu0.IQ:residence:FloatAdd.samples                 56                      
cpu0.IQ:residence:FloatAdd.min_value                5                      
                               0            0      0.00%      0.00%
                               2            0      0.00%      0.00%
                               4            1    178.57%    178.57%
                               6            8   1428.57%   1607.14%
                               8           12   2142.86%   3750.00%
                              10            8   1428.57%   5178.57%
                              12            6   1071.43%   6250.00%
                              14            6   1071.43%   7321.43%
                              16            5    892.86%   8214.29%
                              18            7   1250.00%   9464.29%
                              20            1    178.57%   9642.86%
                              22            0      0.00%   9642.86%
                              24            0      0.00%   9642.86%
                              26            0      0.00%   9642.86%
                              28            0      0.00%   9642.86%
                              30            0      0.00%   9642.86%
                              32            0      0.00%   9642.86%
                              34            0      0.00%   9642.86%
                              36            0      0.00%   9642.86%
                              38            0      0.00%   9642.86%
                              40            0      0.00%   9642.86%
                              42            0      0.00%   9642.86%
                              44            0      0.00%   9642.86%
                              46            0      0.00%   9642.86%
                              48            0      0.00%   9642.86%
                              50            0      0.00%   9642.86%
                              52            0      0.00%   9642.86%
                              54            0      0.00%   9642.86%
                              56            0      0.00%   9642.86%
                              58            0      0.00%   9642.86%
                              60            0      0.00%   9642.86%
                              62            0      0.00%   9642.86%
                              64            0      0.00%   9642.86%
                              66            0      0.00%   9642.86%
                              68            0      0.00%   9642.86%
                              70            0      0.00%   9642.86%
                              72            0      0.00%   9642.86%
                              74            0      0.00%   9642.86%
                              76            0      0.00%   9642.86%
                              78            0      0.00%   9642.86%
                              80            0      0.00%   9642.86%
                              82            0      0.00%   9642.86%
                              84            0      0.00%   9642.86%
                              86            0      0.00%   9642.86%
                              88            0      0.00%   9642.86%
                              90            0      0.00%   9642.86%
                              92            0      0.00%   9642.86%
                              94            0      0.00%   9642.86%
                              96            0      0.00%   9642.86%
                              98            0      0.00%   9642.86%
cpu0.IQ:residence:FloatAdd.overflows                2                      
cpu0.IQ:residence:FloatAdd.max_value              142                      
cpu0.IQ:residence:FloatAdd.end_dist

cpu0.IQ:residence:FloatCmp.start_dist                          # cycles from dispatch to issue
cpu0.IQ:residence:FloatCmp.samples                  7                      
cpu0.IQ:residence:FloatCmp.min_value               13                      
                               0            0      0.00%      0.00%
                               2            0      0.00%      0.00%
                               4            0      0.00%      0.00%
                               6            0      0.00%      0.00%
                               8            0      0.00%      0.00%
                              10            0      0.00%      0.00%
                              12            2   2857.14%   2857.14%
                              14            0      0.00%   2857.14%
                              16            5   7142.86%  10000.00%
                              18            0      0.00%  10000.00%
                              20            0      0.00%  10000.00%
                              22            0      0.00%  10000.00%
                              24            0      0.00%  10000.00%
                              26            0      0.00%  10000.00%
                              28            0      0.00%  10000.00%
                              30            0      0.00%  10000.00%
                              32            0      0.00%  10000.00%
                              34            0      0.00%  10000.00%
                              36            0      0.00%  10000.00%
                              38            0      0.00%  10000.00%
                              40            0      0.00%  10000.00%
                              42            0      0.00%  10000.00%
                              44            0      0.00%  10000.00%
                              46            0      0.00%  10000.00%
                              48            0      0.00%  10000.00%
                              50            0      0.00%  10000.00%
                              52            0      0.00%  10000.00%
                              54            0      0.00%  10000.00%
                              56            0      0.00%  10000.00%
                              58            0      0.00%  10000.00%
                              60            0      0.00%  10000.00%
                              62            0      0.00%  10000.00%
                              64            0      0.00%  10000.00%
                              66            0      0.00%  10000.00%
                              68            0      0.00%  10000.00%
                              70            0      0.00%  10000.00%
                              72            0      0.00%  10000.00%
                              74            0      0.00%  10000.00%
                              76            0      0.00%  10000.00%
                              78            0      0.00%  10000.00%
                              80            0      0.00%  10000.00%
                              82            0      0.00%  10000.00%
                              84            0      0.00%  10000.00%
                              86            0      0.00%  10000.00%
                              88            0      0.00%  10000.00%
                              90            0      0.00%  10000.00%
                              92            0      0.00%  10000.00%
                              94            0      0.00%  10000.00%
                              96            0      0.00%  10000.00%
                              98            0      0.00%  10000.00%
cpu0.IQ:residence:FloatCmp.max_value               17                      
cpu0.IQ:residence:FloatCmp.end_dist

cpu0.IQ:residence:FloatCvt.start_dist                          # cycles from dispatch to issue
cpu0.IQ:residence:FloatCvt.samples                  0                      
cpu0.IQ:residence:FloatCvt.min_value                0                      
                               0            0                      
                               2            0                      
                               4            0                      
                               6            0                      
                               8            0                      
                              10            0                      
                              12            0                      
                              14            0                      
                              16            0                      
                              18            0                      
                              20            0                      
                              22            0                      
                              24            0                      
                              26            0                      
                              28            0                      
                              30            0                      
                              32            0                      
                              34            0                      
                              36            0                      
                              38            0                      
                              40            0                      
                              42            0                      
                              44            0                      
                              46            0                      
                              48            0                      
                              50            0                      
                              52            0                      
                              54            0                      
                              56            0                      
                              58            0                      
                              60            0                      
                              62            0                      
                              64            0                      
                              66            0                      
                              68            0                      
                              70            0                      
                              72            0                      
                              74            0                      
                              76            0                      
                              78            0                      
                              80            0                      
                              82            0                      
                              84            0                      
                              86            0                      
                              88            0                      
                              90            0                      
                              92            0                      
                              94            0                      
                              96            0                      
                              98            0                      
cpu0.IQ:residence:FloatCvt.max_value                0                      
cpu0.IQ:residence:FloatCvt.end_dist

cpu0.IQ:residence:FloatMult.start_dist                         # cycles from dispatch to issue
cpu0.IQ:residence:FloatMult.samples                13                      
cpu0.IQ:residence:FloatMult.min_value              10                      
                               0            0      0.00%      0.00%
                               2            0      0.00%      0.00%
                               4            0      0.00%      0.00%
                               6            0      0.00%      0.00%
                               8            0      0.00%      0.00%
                              10            8   6153.85%   6153.85%
                              12            4   3076.92%   9230.77%
                              14            0      0.00%   9230.77%
                              16            0      0.00%   9230.77%
                              18            0      0.00%   9230.77%
                              20            0      0.00%   9230.77%
                              22            0      0.00%   9230.77%
                              24            0      0.00%   9230.77%
                              26            0      0.00%   9230.77%
                              28            0      0.00%   9230.77%
                              30            0      0.00%   9230.77%
                              32            0      0.00%   9230.77%
                              34            0      0.00%   9230.77%
                              36            0      0.00%   9230.77%
                              38            0      0.00%   9230.77%
                              40            0      0.00%   9230.77%
                              42            0      0.00%   9230.77%
                              44            0      0.00%   9230.77%
                              46            0      0.00%   9230.77%
                              48            0      0.00%   9230.77%
                              50            0      0.00%   9230.77%
                              52            0      0.00%   9230.77%
                              54            0      0.00%   9230.77%
                              56            0      0.00%   9230.77%
                              58            0      0.00%   9230.77%
                              60            0      0.00%   9230.77%
                              62            0      0.00%   9230.77%
                              64            0      0.00%   9230.77%
                              66            0      0.00%   9230.77%
                              68            0      0.00%   9230.77%
                              70            0      0.00%   9230.77%
                              72            0      0.00%   9230.77%
                              74            0      0.00%   9230.77%
                              76            0      0.00%   9230.77%
                              78            0      0.00%   9230.77%
                              80            0      0.00%   9230.77%
                              82            0      0.00%   9230.77%
                              84            0      0.00%   9230.77%
                              86            0      0.00%   9230.77%
                              88            0      0.00%   9230.77%
                              90            0      0.00%   9230.77%
                              92            0      0.00%   9230.77%
                              94            0      0.00%   9230.77%
                              96            0      0.00%   9230.77%
                              98            0      0.00%   9230.77%
cpu0.IQ:residence:FloatMult.overflows               1                      
cpu0.IQ:residence:FloatMult.max_value             143                      
cpu0.IQ:residence:FloatMult.end_dist

cpu0.IQ:residence:FloatDiv.start_dist                          # cycles from dispatch to issue
cpu0.IQ:residence:FloatDiv.samples                  0                      
cpu0.IQ:residence:FloatDiv.min_value                0                      
                               0            0                      
                               2            0                      
                               4            0                      
                               6            0                      
                               8            0                      
                              10            0                      
                              12            0                      
                              14            0                      
                              16            0                      
                              18            0                      
                              20            0                      
                              22            0                      
                              24            0                      
                              26            0                      
                              28            0                      
                              30            0                      
                              32            0                      
                              34            0                      
                              36            0                      
                              38            0                      
                              40            0                      
                              42            0                      
                              44            0                      
                              46            0                      
                              48            0                      
                              50            0                      
                              52            0                      
                              54            0                      
                              56            0                      
                              58            0                      
                              60            0                      
                              62            0                      
                              64            0                      
                              66            0                      
                              68            0                      
                              70            0                      
                              72            0                      
                              74            0                      
                              76            0                      
                              78            0                      
                              80            0                      
                              82            0                      
                              84            0                      
                              86            0                      
                              88            0                      
                              90            0                      
                              92            0                      
                              94            0                      
                              96            0                      
                              98            0                      
cpu0.IQ:residence:FloatDiv.max_value                0                      
cpu0.IQ:residence:FloatDiv.end_dist

cpu0.IQ:residence:FloatSqrt.start_dist                         # cycles from dispatch to issue
cpu0.IQ:residence:FloatSqrt.samples                 0                      
cpu0.IQ:residence:FloatSqrt.min_value               0                      
                               0            0                      
                               2            0                      
                               4            0                      
                               6            0                      
                               8            0                      
                              10            0                      
                              12            0                      
                              14            0                      
                              16            0                      
                              18            0                      
                              20            0                      
                              22            0                      
                              24            0                      
                              26            0                      
                              28            0                      
                              30            0                      
                              32            0                      
                              34            0                      
                              36            0                      
                              38            0                      
                              40            0                      
                              42            0                      
                              44            0                      
                              46            0                      
                              48            0                      
                              50            0                      
                              52            0                      
                              54            0                      
                              56            0                      
                              58            0                      
                              60            0                      
                              62            0                      
                              64            0                      
                              66            0                      
                              68            0                      
                              70            0                      
                              72            0                      
                              74            0                      
                              76            0                      
                              78            0                      
                              80            0                      
                              82            0                      
                              84            0                      
                              86            0                      
                              88            0                      
                              90            0                      
                              92            0                      
                              94            0                      
                              96            0                      
                              98            0                      
cpu0.IQ:residence:FloatSqrt.max_value               0                      
cpu0.IQ:residence:FloatSqrt.end_dist

cpu0.IQ:residence:MemRead.start_dist                           # cycles from dispatch to issue
cpu0.IQ:residence:MemRead.samples               51060                      
cpu0.IQ:residence:MemRead.min_value                 1                      
                               0         8410   1647.08%   1647.08%
                               2        12274   2403.84%   4050.92%
                               4         7379   1445.16%   5496.08%
                               6         5097    998.24%   6494.32%
                               8         2980    583.63%   7077.95%
                              10         2530    495.50%   7573.44%
                              12         1572    307.87%   7881.32%
                              14         1606    314.53%   8195.85%
                              16         1298    254.21%   8450.06%
                              18          999    195.65%   8645.71%
                              20          560    109.67%   8755.39%
                              22          596    116.73%   8872.11%
                              24          807    158.05%   9030.16%
                              26         1561    305.72%   9335.88%
                              28          958    187.62%   9523.50%
                              30          969    189.78%   9713.28%
                              32          598    117.12%   9830.40%
                              34          184     36.04%   9866.43%
                              36           20      3.92%   9870.35%
                              38            6      1.18%   9871.52%
                              40           91     17.82%   9889.35%
                              42           35      6.85%   9896.20%
                              44            2      0.39%   9896.59%
                              46            3      0.59%   9897.18%
                              48            3      0.59%   9897.77%
                              50           43      8.42%   9906.19%
                              52            0      0.00%   9906.19%
                              54           40      7.83%   9914.02%
                              56            0      0.00%   9914.02%
                              58            0      0.00%   9914.02%
                              60            0      0.00%   9914.02%
                              62            3      0.59%   9914.61%
                              64            2      0.39%   9915.00%
                              66            6      1.18%   9916.18%
                              68            2      0.39%   9916.57%
                              70            0      0.00%   9916.57%
                              72            1      0.20%   9916.76%
                              74            1      0.20%   9916.96%
                              76            6      1.18%   9918.14%
                              78            1      0.20%   9918.33%
                              80            1      0.20%   9918.53%
                              82            6      1.18%   9919.70%
                              84            1      0.20%   9919.90%
                              86            0      0.00%   9919.90%
                              88            0      0.00%   9919.90%
                              90            0      0.00%   9919.90%
                              92            0      0.00%   9919.90%
                              94            0      0.00%   9919.90%
                              96            0      0.00%   9919.90%
                              98            0      0.00%   9919.90%
cpu0.IQ:residence:MemRead.overflows               409                      
cpu0.IQ:residence:MemRead.max_value               284                      
cpu0.IQ:residence:MemRead.end_dist

cpu0.IQ:residence:MemWrite.start_dist                          # cycles from dispatch to issue
cpu0.IQ:residence:MemWrite.samples              43964                      
cpu0.IQ:residence:MemWrite.min_value                1                      
                               0         3933    894.60%    894.60%
                               2        10767   2449.05%   3343.64%
                               4         7710   1753.71%   5097.35%
                               6         6015   1368.16%   6465.52%
                               8         4473   1017.42%   7482.94%
                              10         4091    930.53%   8413.47%
                              12         1435    326.40%   8739.88%
                              14          635    144.44%   8884.31%
                              16          477    108.50%   8992.81%
                              18          658    149.67%   9142.48%
                              20          591    134.43%   9276.91%
                              22           93     21.15%   9298.06%
                              24          192     43.67%   9341.73%
                              26          436     99.17%   9440.91%
                              28          381     86.66%   9527.57%
                              30          356     80.98%   9608.54%
                              32          243     55.27%   9663.82%
                              34          184     41.85%   9705.67%
                              36           27      6.14%   9711.81%
                              38           38      8.64%   9720.45%
                              40           58     13.19%   9733.65%
                              42           36      8.19%   9741.83%
                              44            7      1.59%   9743.43%
                              46            3      0.68%   9744.11%
                              48            1      0.23%   9744.34%
                              50            7      1.59%   9745.93%
                              52            1      0.23%   9746.16%
                              54           79     17.97%   9764.13%
                              56            0      0.00%   9764.13%
                              58            0      0.00%   9764.13%
                              60            1      0.23%   9764.35%
                              62            3      0.68%   9765.04%
                              64            5      1.14%   9766.17%
                              66            5      1.14%   9767.31%
                              68           15      3.41%   9770.72%
                              70            0      0.00%   9770.72%
                              72            1      0.23%   9770.95%
                              74            6      1.36%   9772.31%
                              76           44     10.01%   9782.32%
                              78            2      0.45%   9782.78%
                              80            2      0.45%   9783.23%
                              82            2      0.45%   9783.69%
                              84           36      8.19%   9791.88%
                              86            6      1.36%   9793.24%
                              88            1      0.23%   9793.47%
                              90            0      0.00%   9793.47%
                              92            1      0.23%   9793.69%
                              94            0      0.00%   9793.69%
                              96            0      0.00%   9793.69%
                              98            5      1.14%   9794.83%
cpu0.IQ:residence:MemWrite.overflows              902                      
cpu0.IQ:residence:MemWrite.max_value              281                      
cpu0.IQ:residence:MemWrite.end_dist

cpu0.IQ:residence:IprAccess.start_dist                         # cycles from dispatch to issue
cpu0.IQ:residence:IprAccess.samples                 0                      
cpu0.IQ:residence:IprAccess.min_value               0                      
                               0            0                      
                               2            0                      
                               4            0                      
                               6            0                      
                               8            0                      
                              10            0                      
                              12            0                      
                              14            0                      
                              16            0                      
                              18            0                      
                              20            0                      
                              22            0                      
                              24            0                      
                              26            0                      
                              28            0                      
                              30            0                      
                              32            0                      
                              34            0                      
                              36            0                      
                              38            0                      
                              40            0                      
                              42            0                      
                              44            0                      
                              46            0                      
                              48            0                      
                              50            0                      
                              52            0                      
                              54            0                      
                              56            0                      
                              58            0                      
                              60            0                      
                              62            0                      
                              64            0                      
                              66            0                      
                              68            0                      
                              70            0                      
                              72            0                      
                              74            0                      
                              76            0                      
                              78            0                      
                              80            0                      
                              82            0                      
                              84            0                      
                              86            0                      
                              88            0                      
                              90            0                      
                              92            0                      
                              94            0                      
                              96            0                      
                              98            0                      
cpu0.IQ:residence:IprAccess.max_value               0                      
cpu0.IQ:residence:IprAccess.end_dist

cpu0.IQ:residence:InstPrefetch.start_dist                      # cycles from dispatch to issue
cpu0.IQ:residence:InstPrefetch.samples              0                      
cpu0.IQ:residence:InstPrefetch.min_value            0                      
                               0            0                      
                               2            0                      
                               4            0                      
                               6            0                      
                               8            0                      
                              10            0                      
                              12            0                      
                              14            0                      
                              16            0                      
                              18            0                      
                              20            0                      
                              22            0                      
                              24            0                      
                              26            0                      
                              28            0                      
                              30            0                      
                              32            0                      
                              34            0                      
                              36            0                      
                              38            0                      
                              40            0                      
                              42            0                      
                              44            0                      
                              46            0                      
                              48            0                      
                              50            0                      
                              52            0                      
                              54            0                      
                              56            0                      
                              58            0                      
                              60            0                      
                              62            0                      
                              64            0                      
                              66            0                      
                              68            0                      
                              70            0                      
                              72            0                      
                              74            0                      
                              76            0                      
                              78            0                      
                              80            0                      
                              82            0                      
                              84            0                      
                              86            0                      
                              88            0                      
                              90            0                      
                              92            0                      
                              94            0                      
                              96            0                      
                              98            0                      
cpu0.IQ:residence:InstPrefetch.max_value            0                      
cpu0.IQ:residence:InstPrefetch.end_dist

cpu0.ISSUE:(null)_delay.start_dist                             # cycles from operands ready to issue
cpu0.ISSUE:(null)_delay.samples                     0                      
cpu0.ISSUE:(null)_delay.min_value                   0                      
                               0            0                      
                               2            0                      
                               4            0                      
                               6            0                      
                               8            0                      
                              10            0                      
                              12            0                      
                              14            0                      
                              16            0                      
                              18            0                      
                              20            0                      
                              22            0                      
                              24            0                      
                              26            0                      
                              28            0                      
                              30            0                      
                              32            0                      
                              34            0                      
                              36            0                      
                              38            0                      
                              40            0                      
                              42            0                      
                              44            0                      
                              46            0                      
                              48            0                      
                              50            0                      
                              52            0                      
                              54            0                      
                              56            0                      
                              58            0                      
                              60            0                      
                              62            0                      
                              64            0                      
                              66            0                      
                              68            0                      
                              70            0                      
                              72            0                      
                              74            0                      
                              76            0                      
                              78            0                      
                              80            0                      
                              82            0                      
                              84            0                      
                              86            0                      
                              88            0                      
                              90            0                      
                              92            0                      
                              94            0                      
                              96            0                      
                              98            0                      
cpu0.ISSUE:(null)_delay.max_value                   0                      
cpu0.ISSUE:(null)_delay.end_dist

cpu0.ISSUE:IntAlu_delay.start_dist                             # cycles from operands ready to issue
cpu0.ISSUE:IntAlu_delay.samples                 75526                      
cpu0.ISSUE:IntAlu_delay.min_value                   0                      
                               0        62304   8249.34%   8249.34%
                               2         8504   1125.97%   9375.31%
                               4         3058    404.89%   9780.21%
                               6         1125    148.96%   9929.16%
                               8          387     51.24%   9980.40%
                              10          147     19.46%   9999.87%
                              12            1      0.13%  10000.00%
                              14            0      0.00%  10000.00%
                              16            0      0.00%  10000.00%
                              18            0      0.00%  10000.00%
                              20            0      0.00%  10000.00%
                              22            0      0.00%  10000.00%
                              24            0      0.00%  10000.00%
                              26            0      0.00%  10000.00%
                              28            0      0.00%  10000.00%
                              30            0      0.00%  10000.00%
                              32            0      0.00%  10000.00%
                              34            0      0.00%  10000.00%
                              36            0      0.00%  10000.00%
                              38            0      0.00%  10000.00%
                              40            0      0.00%  10000.00%
                              42            0      0.00%  10000.00%
                              44            0      0.00%  10000.00%
                              46            0      0.00%  10000.00%
                              48            0      0.00%  10000.00%
                              50            0      0.00%  10000.00%
                              52            0      0.00%  10000.00%
                              54            0      0.00%  10000.00%
                              56            0      0.00%  10000.00%
                              58            0      0.00%  10000.00%
                              60            0      0.00%  10000.00%
                              62            0      0.00%  10000.00%
                              64            0      0.00%  10000.00%
                              66            0      0.00%  10000.00%
                              68            0      0.00%  10000.00%
                              70            0      0.00%  10000.00%
                              72            0      0.00%  10000.00%
                              74            0      0.00%  10000.00%
                              76            0      0.00%  10000.00%
                              78            0      0.00%  10000.00%
                              80            0      0.00%  10000.00%
                              82            0      0.00%  10000.00%
                              84            0      0.00%  10000.00%
                              86            0      0.00%  10000.00%
                              88            0      0.00%  10000.00%
                              90            0      0.00%  10000.00%
                              92            0      0.00%  10000.00%
                              94            0      0.00%  10000.00%
                              96            0      0.00%  10000.00%
                              98            0      0.00%  10000.00%
cpu0.ISSUE:IntAlu_delay.max_value                  12                      
cpu0.ISSUE:IntAlu_delay.end_dist

cpu0.ISSUE:IntMult_delay.start_dist                            # cycles from operands ready to issue
cpu0.ISSUE:IntMult_delay.samples                   83                      
cpu0.ISSUE:IntMult_delay.min_value                  0                      
                               0           83  10000.00%  10000.00%
                               2            0      0.00%  10000.00%
                               4            0      0.00%  10000.00%
                               6            0      0.00%  10000.00%
                               8            0      0.00%  10000.00%
                              10            0      0.00%  10000.00%
                              12            0      0.00%  10000.00%
                              14            0      0.00%  10000.00%
                              16            0      0.00%  10000.00%
                              18            0      0.00%  10000.00%
                              20            0      0.00%  10000.00%
                              22            0      0.00%  10000.00%
                              24            0      0.00%  10000.00%
                              26            0      0.00%  10000.00%
                              28            0      0.00%  10000.00%
                              30            0      0.00%  10000.00%
                              32            0      0.00%  10000.00%
                              34            0      0.00%  10000.00%
                              36            0      0.00%  10000.00%
                              38            0      0.00%  10000.00%
                              40            0      0.00%  10000.00%
                              42            0      0.00%  10000.00%
                              44            0      0.00%  10000.00%
                              46            0      0.00%  10000.00%
                              48            0      0.00%  10000.00%
                              50            0      0.00%  10000.00%
                              52            0      0.00%  10000.00%
                              54            0      0.00%  10000.00%
                              56            0      0.00%  10000.00%
                              58            0      0.00%  10000.00%
                              60            0      0.00%  10000.00%
                              62            0      0.00%  10000.00%
                              64            0      0.00%  10000.00%
                              66            0      0.00%  10000.00%
                              68            0      0.00%  10000.00%
                              70            0      0.00%  10000.00%
                              72            0      0.00%  10000.00%
                              74            0      0.00%  10000.00%
                              76            0      0.00%  10000.00%
                              78            0      0.00%  10000.00%
                              80            0      0.00%  10000.00%
                              82            0      0.00%  10000.00%
                              84            0      0.00%  10000.00%
                              86            0      0.00%  10000.00%
                              88            0      0.00%  10000.00%
                              90            0      0.00%  10000.00%
                              92            0      0.00%  10000.00%
                              94            0      0.00%  10000.00%
                              96            0      0.00%  10000.00%
                              98            0      0.00%  10000.00%
cpu0.ISSUE:IntMult_delay.max_value                  1                      
cpu0.ISSUE:IntMult_delay.end_dist

cpu0.ISSUE:IntDiv_delay.start_dist                             # cycles from operands ready to issue
cpu0.ISSUE:IntDiv_delay.samples                     0                      
cpu0.ISSUE:IntDiv_delay.min_value                   0                      
                               0            0                      
                               2            0                      
                               4            0                      
                               6            0                      
                               8            0                      
                              10            0                      
                              12            0                      
                              14            0                      
                              16            0                      
                              18            0                      
                              20            0                      
                              22            0                      
                              24            0                      
                              26            0                      
                              28            0                      
                              30            0                      
                              32            0                      
                              34            0                      
                              36            0                      
                              38            0                      
                              40            0                      
                              42            0                      
                              44            0                      
                              46            0                      
                              48            0                      
                              50            0                      
                              52            0                      
                              54            0                      
                              56            0                      
                              58            0                      
                              60            0                      
                              62            0                      
[...]
cpu1.icache.writebacks                              0                       # number of writebacks
cpu1.iq:RQ:rdy_inst                                 0                       # Number of ready instructions (cum)
cpu1.iq:RQ:rdy_inst_dist_0_mean          <err: div-0>                       # standard deviation of ready rate
cpu1.iq:RQ:rdy_inst_dist_0_stdev         <err: div-0>                       # standard deviation of ready rate
**Ignore: cpu1.iq:RQ:rdy_inst_dist_0_TOT            0                       # standard deviation of ready rate
cpu1.iq:RQ:rdy_rate                      <err: div-0>                       # Number of ready insts per cycle
cpu1.iq:RQ:rdy_x_count                              0                       # number of insts that become ready (cum)
cpu1.iq:RQ:rdy_x_max                                0                       # largest number of insts that become ready
cpu1.iq:RQ:rdy_x_rate                    <err: div-0>                       # number of insts that become ready per cycle
cpu1.iq:avg_residency                    <err: div-0>                       # Average IQ residency
cpu1.iq:cum_num_insts                               0                       # Total occupancy
cpu1.iq:current_count                               0                       # Occupancy this cycle
cpu1.iq:empty_count                                 0                       # Number of empty cycles
cpu1.iq:empty_rate                       <err: div-0>                       # Fraction of cycles empty
cpu1.iq:full_count                                  0                       # Number of full cycles
cpu1.iq:full_rate                        <err: div-0>                       # Fraction of cycles full
cpu1.iq:occ_dist_0.start_dist                                  # IQ Occupancy per cycle
cpu1.iq:occ_dist_0.samples                          0                      
cpu1.iq:occ_dist_0.min_value                        0                      
                               0            0                      
                               2            0                      
                               4            0                      
                               6            0                      
                               8            0                      
                              10            0                      
                              12            0                      
                              14            0                      
                              16            0                      
                              18            0                      
                              20            0                      
                              22            0                      
                              24            0                      
                              26            0                      
                              28            0                      
                              30            0                      
                              32            0                      
                              34            0                      
                              36            0                      
                              38            0                      
                              40            0                      
                              42            0                      
                              44            0                      
                              46            0                      
                              48            0                      
                              50            0                      
                              52            0                      
                              54            0                      
                              56            0                      
                              58            0                      
                              60            0                      
                              62            0                      
                              64            0                      
cpu1.iq:occ_dist_0.max_value                        0                      
cpu1.iq:occ_dist_0.end_dist

cpu1.iq:occ_rate                         <err: div-0>                       # Average occupancy
cpu1.iq:peak_occupancy                              0                       # Peak IQ occupancy
cpu1.numCycles                                      0                       # number of cpu cycles simulated
cpu1inst_class_dist.start_dist
             All ops ready                          0      0.00%            # Operand status at dispatch
          One op not ready                          0      0.00%            # Operand status at dispatch
     None rdy, mult chains                          0      0.00%            # Operand status at dispatch
     None rdy, one chained                          0      0.00%            # Operand status at dispatch
  None rdy, all self-timed                          0      0.00%            # Operand status at dispatch
cpu1inst_class_dist.end_dist
host_inst_rate                                  86510                       # Simulator instruction rate (inst/s)
host_mem_usage                                  25816                       # Number of bytes of host memory used
host_seconds                                     1.16                       # Real time elapsed on the host
host_tick_rate                                 108726                       # Simulator tick rate (ticks/s)
l2.avg_blocked_cycles_no_mshrs               no value                       # average number of cycles each access was blocked
l2.avg_blocked_cycles_no_targets             no value                       # average number of cycles each access was blocked
l2.avg_refs                              <err: div-0>                       # Average number of references to valid blocks.
l2.blocked_no_mshrs                                 0                       # number of cycles access was blocked
l2.blocked_no_targets                               0                       # number of cycles access was blocked
l2.blocked_cycles_no_mshrs                          0                       # number of cycles access was blocked
l2.blocked_cycles_no_targets                        0                       # number of cycles access was blocked
l2.cache_copies                                     0                       # number of cache copies performed
l2.demand_accesses                               1287                       # number of demand (read+write) accesses
l2.demand_avg_miss_latency                 128.713360                       # average overall miss latency
l2.demand_avg_mshr_miss_latency            115.094737                       # average overall mshr miss latency
l2.demand_hits                                     52                       # number of demand (read+write) hits
l2.demand_miss_latency                         158961                       # number of demand (read+write) miss cycles
l2.demand_miss_rate                          0.959596                       # miss rate for demand accesses
l2.demand_misses                                 1235                       # number of demand (read+write) misses
l2.demand_mshr_hits                                 0                       # number of demand (read+write) MSHR hits
l2.demand_mshr_miss_latency                    142142                       # number of demand (read+write) MSHR miss cycles
l2.demand_mshr_miss_rate                     0.959596                       # mshr miss rate for demand accesses
l2.demand_mshr_misses                            1235                       # number of demand (read+write) MSHR misses
l2.falru_accesses                                2848                       # The number of accesses to the FA LRU cache.
l2.falru_hits_128K                                661                       # Hits in a 128K cache
l2.falru_hits_256K                                662                       # Hits in a 256K cache
l2.falru_hits_512K                                662                       # Hits in a 512K cache
l2.falru_hits_1M                                  662                       # Hits in a 1M cache
l2.falru_hits_2M                                  662                       # Hits in a 2M cache
l2.falru_misses_128K                             2187                       # Misses in a 128K cache
l2.falru_misses_256K                             2186                       # Misses in a 256K cache
l2.falru_misses_512K                             2186                       # Misses in a 512K cache
l2.falru_misses_1M                               2186                       # Misses in a 1M cache
l2.falru_misses_2M                               2186                       # Misses in a 2M cache
l2.fast_writes                                      0                       # number of fast writes performed
l2.mshr_cap_events                                  0                       # number of times MSHR cap was activated
l2.no_allocate_misses                               0                       # Number of misses that were no-allocate
l2.overall_accesses                              1896                       # number of overall (read+write) accesses
l2.overall_avg_miss_latency                128.713360                       # average overall miss latency
l2.overall_avg_mshr_miss_latency           115.094737                       # average overall mshr miss latency
l2.overall_avg_mshr_uncacheable_latency      no value                       # average overall mshr uncacheable latency
l2.overall_hits                                   661                       # number of overall hits
l2.overall_miss_latency                        158961                       # number of overall miss cycles
l2.overall_miss_rate                         0.651371                       # miss rate for overall accesses
l2.overall_misses                                1235                       # number of overall misses
l2.overall_mshr_hits                                0                       # number of overall MSHR hits
l2.overall_mshr_miss_latency                   142142                       # number of overall MSHR miss cycles
l2.overall_mshr_miss_rate                    0.651371                       # mshr miss rate for overall accesses
l2.overall_mshr_misses                           1235                       # number of overall MSHR misses
l2.overall_mshr_uncacheable_latency                 0                       # number of overall MSHR uncacheable cycles
l2.overall_mshr_uncacheable_misses                  0                       # number of overall MSHR uncacheable misses
l2.prefetcher.num_hwpf_already_in_cache             0                       # number of hwpf that were already in the cache
l2.prefetcher.num_hwpf_already_in_mshr              0                       # number of hwpf that were already in mshr
l2.prefetcher.num_hwpf_already_in_prefetcher            0                       # number of hwpf that were already in the prefetch queue
l2.prefetcher.num_hwpf_evicted                      0                       # number of hwpf removed due to no buffer left
l2.prefetcher.num_hwpf_identified                   0                       # number of hwpf identified
l2.prefetcher.num_hwpf_issued                       0                       # number of hwpf issued
l2.prefetcher.num_hwpf_removed_MSHR_hit             0                       # number of hwpf removed because MSHR allocated
l2.prefetcher.num_hwpf_span_page                    0                       # number of hwpf spanning a virtual page
l2.prefetcher.num_hwpf_squashed_from_miss            0                       # number of hwpf that got squashed due to a miss aborting calculation time
l2.readEx_accesses                                952                       # number of readEx accesses(hits+misses)
l2.readEx_avg_miss_latency                 131.648791                       # average readEx miss latency
l2.readEx_avg_mshr_miss_latency            117.112513                       # average readEx mshr miss latency
l2.readEx_hits                                      1                       # number of readEx hits
l2.readEx_miss_latency                         125198                       # number of readEx miss cycles
l2.readEx_miss_rate                          0.998950                       # miss rate for readEx accesses
l2.readEx_misses                                  951                       # number of readEx misses
l2.readEx_mshr_miss_latency                    111374                       # number of readEx MSHR miss cycles
l2.readEx_mshr_miss_rate                     0.998950                       # mshr miss rate for readEx accesses
l2.readEx_mshr_misses                             951                       # number of readEx MSHR misses
l2.read_accesses                                 1287                       # number of read accesses(hits+misses)
l2.read_avg_miss_latency                   128.713360                       # average read miss latency
l2.read_avg_mshr_miss_latency              115.094737                       # average read mshr miss latency
l2.read_hits                                       52                       # number of read hits
l2.read_miss_latency                           158961                       # number of read miss cycles
l2.read_miss_rate                            0.959596                       # miss rate for read accesses
l2.read_misses                                   1235                       # number of read misses
l2.read_mshr_miss_latency                      142142                       # number of read MSHR miss cycles
l2.read_mshr_miss_rate                       0.959596                       # mshr miss rate for read accesses
l2.read_mshr_misses                              1235                       # number of read MSHR misses
l2.replacements                                     0                       # number of replacements
l2.sampled_refs                                     0                       # Sample count of references to valid blocks.
l2.soft_prefetch_mshr_full                          0                       # number of mshr full events for SW prefetching instrutions
l2.tagsinuse                               975.538619                       # Cycle average of tags in use
l2.total_refs                                       0                       # Total number of references to valid blocks.
l2.warmup_cycle                                     0                       # Cycle when the warmup percentage was hit.
l2.writeback_accesses                             609                       # number of writeback accesses(hits+misses)
l2.writeback_hits                                 609                       # number of writeback hits
l2.writebacks                                       0                       # number of writebacks
ram.accesses                                     2186                       # total number of accesses
ram.bytes_requested                                 0                       # total number of bytes requested
ram.bytes_sent                                      0                       # total number of bytes sent
ram.compressed_responses                            0                       # total number of accesses that are compressed
sim_freq                                    200000000                       # Frequency of simulated ticks
sim_insts                                      100005                       # Number of instructions simulated
sim_seconds                                  0.000629                       # Number of seconds simulated
sim_ticks                                      125715                       # Number of ticks simulated
toL2Bus.addr_idle_cycles                       122861                       # number of cycles bus was idle
toL2Bus.addr_idle_fraction                   0.977298                       # fraction of time addr bus was idle
toL2Bus.addr_queued                          3.606039                       # average queueing delay seen by bus request
toL2Bus.addr_queued_cycles                      10270                       # total number of queued cycles for all requests
toL2Bus.addr_requests                            2848                       # number of transmissions on bus
toL2Bus.bus_blocked                                 0                       # number of times bus was blocked
toL2Bus.bus_blocked_cycles                          0                       # number of cycles bus was blocked
toL2Bus.bus_blocked_fraction                        0                       # fraction of time bus was blocked
toL2Bus.data_idle_cycles                       122863                       # number of cycles bus was idle
toL2Bus.data_idle_fraction                   0.977314                       # fraction of time data bus was idle
toL2Bus.data_queued                          1.093387                       # average queueing delay seen by bus request
toL2Bus.data_queued_cycles                       2447                       # total number of queued cycles for all requests
toL2Bus.data_requests                            2238                       # number of transmissions on bus
toL2Bus.null_grants                                54                       # number of null grants (wasted cycles)
toMemBus.addr_idle_cycles                      123488                       # number of cycles bus was idle
toMemBus.addr_idle_fraction                  0.982285                       # fraction of time addr bus was idle
toMemBus.addr_queued                        11.038884                       # average queueing delay seen by bus request
toMemBus.addr_queued_cycles                     24131                       # total number of queued cycles for all requests
toMemBus.addr_requests                           2186                       # number of transmissions on bus
toMemBus.bus_blocked                                0                       # number of times bus was blocked
toMemBus.bus_blocked_cycles                         0                       # number of cycles bus was blocked
toMemBus.bus_blocked_fraction                       0                       # fraction of time bus was blocked
toMemBus.data_idle_cycles                      116957                       # number of cycles bus was idle
toMemBus.data_idle_fraction                  0.930334                       # fraction of time data bus was idle
toMemBus.data_queued                         3.987185                       # average queueing delay seen by bus request
toMemBus.data_queued_cycles                      8712                       # total number of queued cycles for all requests
toMemBus.data_requests                           2185                       # number of transmissions on bus
toMemBus.null_grants                                0                       # number of null grants (wasted cycles)
workload.MainMem.page_count                        20                       # total number of pages allocated
workload.MainMem.page_mem                         160                       # total size of memory pages allocated
workload.MainMem.ptab_accesses                 331013                       # total page table accessess
workload.MainMem.ptab_miss_rate                0.0072                       # first level page table miss rate
workload.MainMem.ptab_misses                     2395                       # total first level page table misses
workload.PROG:num_syscalls                         19                       # Number of system calls

---------- End Simulation Statistics   ----------
