
---------- Begin Simulation Statistics ----------
cpu.COM:IPB                                  6.214547                       # Committed instructions per branch
cpu.COM:IPB_0                                6.199268                       # Committed instructions per branch
cpu.COM:IPB_1                                6.198540                       # Committed instructions per branch
cpu.COM:IPB_2                                6.252234                       # Committed instructions per branch
cpu.COM:IPB_3                                6.204270                       # Committed instructions per branch
cpu.COM:IPC                                  2.083710                       # Committed instructions per cycle
cpu.COM:IPC_0                                0.504032                       # Committed instructions per cycle
cpu.COM:IPC_1                                0.503763                       # Committed instructions per cycle
cpu.COM:IPC_2                                0.562903                       # Committed instructions per cycle
cpu.COM:IPC_3                                0.513012                       # Committed instructions per cycle
cpu.COM:branches                               595655                       # Number of branches committed
cpu.COM:branches_0                             144439                       # Number of branches committed
cpu.COM:branches_1                             144379                       # Number of branches committed
cpu.COM:branches_2                             159943                       # Number of branches committed
cpu.COM:branches_3                             146894                       # Number of branches committed
cpu.COM:bw_lim_avg                            22.8013                       # Avg number not committed in cycles BW limited
cpu.COM:bw_lim_avg_0                           5.0727                       # Avg number not committed in cycles BW limited
cpu.COM:bw_lim_avg_1                           5.0811                       # Avg number not committed in cycles BW limited
cpu.COM:bw_lim_avg_2                           7.1676                       # Avg number not committed in cycles BW limited
cpu.COM:bw_lim_avg_3                           5.4799                       # Avg number not committed in cycles BW limited
cpu.COM:bw_lim_events                          165901                       # number cycles where commit BW limit reached
cpu.COM:bw_lim_rate                            2.1293                       # Average number not committed due to BW (over all cycles)
cpu.COM:bw_lim_rate_0                          0.4737                       # Average number not committed due to BW (over all cycles)
cpu.COM:bw_lim_rate_1                          0.4745                       # Average number not committed due to BW (over all cycles)
cpu.COM:bw_lim_rate_2                          0.6694                       # Average number not committed due to BW (over all cycles)
cpu.COM:bw_lim_rate_3                          0.5117                       # Average number not committed due to BW (over all cycles)
cpu.COM:bw_lim_stdev_0_mean                    5.0727                       # standard deviation of bw_lim_avg value
cpu.COM:bw_lim_stdev_0_stdev                  12.2792                       # standard deviation of bw_lim_avg value
**Ignore: cpu.COM:bw_lim_stdev_0_TOT      165901.0000                       # standard deviation of bw_lim_avg value
cpu.COM:bw_lim_stdev_1_mean                    5.0811                       # standard deviation of bw_lim_avg value
cpu.COM:bw_lim_stdev_1_stdev                  12.3074                       # standard deviation of bw_lim_avg value
**Ignore: cpu.COM:bw_lim_stdev_1_TOT      165901.0000                       # standard deviation of bw_lim_avg value
cpu.COM:bw_lim_stdev_2_mean                    7.1676                       # standard deviation of bw_lim_avg value
cpu.COM:bw_lim_stdev_2_stdev                  15.5043                       # standard deviation of bw_lim_avg value
**Ignore: cpu.COM:bw_lim_stdev_2_TOT      165901.0000                       # standard deviation of bw_lim_avg value
cpu.COM:bw_lim_stdev_3_mean                    5.4799                       # standard deviation of bw_lim_avg value
cpu.COM:bw_lim_stdev_3_stdev                  13.3864                       # standard deviation of bw_lim_avg value
**Ignore: cpu.COM:bw_lim_stdev_3_TOT      165901.0000                       # standard deviation of bw_lim_avg value
cpu.COM:bw_limited                            3782760                       # number of insts not committed due to BW limits
cpu.COM:bw_limited_0                           841568                       # number of insts not committed due to BW limits
cpu.COM:bw_limited_1                           842960                       # number of insts not committed due to BW limits
cpu.COM:bw_limited_2                          1189118                       # number of insts not committed due to BW limits
cpu.COM:bw_limited_3                           909114                       # number of insts not committed due to BW limits
cpu.COM:committed_per_cycle.start_dist                         # Number of insts commited each cycle
cpu.COM:committed_per_cycle.samples           1005154                      
cpu.COM:committed_per_cycle.min_value               0                      
                               0         4746     47.22%           
                               1       273820   2724.16%           
                               2       176446   1755.41%           
                               3       125476   1248.33%           
                               4        93388    929.09%           
                               5        61204    608.90%           
                               6        49082    488.30%           
                               7        35082    349.02%           
                               8       185910   1849.57%           
cpu.COM:committed_per_cycle.max_value               8                      
cpu.COM:committed_per_cycle.end_dist

cpu.COM:count                                 3701726                       # Number of instructions committed
cpu.COM:count_0                                895416                       # Number of instructions committed
cpu.COM:count_1                                894939                       # Number of instructions committed
cpu.COM:count_2                               1000001                       # Number of instructions committed
cpu.COM:count_3                                911370                       # Number of instructions committed
cpu.COM:loads                                  878865                       # Number of loads committed
cpu.COM:loads_0                                212159                       # Number of loads committed
cpu.COM:loads_1                                212040                       # Number of loads committed
cpu.COM:loads_2                                238693                       # Number of loads committed
cpu.COM:loads_3                                215973                       # Number of loads committed
cpu.COM:membars                                     0                       # Number of memory barriers committed
cpu.COM:membars_0                                   0                       # Number of memory barriers committed
cpu.COM:membars_1                                   0                       # Number of memory barriers committed
cpu.COM:membars_2                                   0                       # Number of memory barriers committed
cpu.COM:membars_3                                   0                       # Number of memory barriers committed
cpu.COM:refs                                  1328846                       # Number of memory references committed
cpu.COM:refs_0                                 321250                       # Number of memory references committed
cpu.COM:refs_1                                 321089                       # Number of memory references committed
cpu.COM:refs_2                                 359521                       # Number of memory references committed
cpu.COM:refs_3                                 326986                       # Number of memory references committed
cpu.COM:stores                                 449981                       # Number of stores committed
cpu.COM:stores_0                               109091                       # Number of stores committed
cpu.COM:stores_1                               109049                       # Number of stores committed
cpu.COM:stores_2                               120828                       # Number of stores committed
cpu.COM:stores_3                               111013                       # Number of stores committed
cpu.COM:swp_count                                8332                       # Number of s/w prefetches committed
cpu.COM:swp_count_0                              2004                       # Number of s/w prefetches committed
cpu.COM:swp_count_1                              2004                       # Number of s/w prefetches committed
cpu.COM:swp_count_2                              2263                       # Number of s/w prefetches committed
cpu.COM:swp_count_3                              2061                       # Number of s/w prefetches committed
cpu.DDQ:count                               160616057                       # cum count of instructions
cpu.DDQ:count_0                              37448236                       # cum count of instructions
cpu.DDQ:count_1                              37778563                       # cum count of instructions
cpu.DDQ:count_2                              45654426                       # cum count of instructions
cpu.DDQ:count_3                              39734832                       # cum count of instructions
cpu.DDQ:rate                                       90                       # average number of instructions
cpu.DDQ:rate_0                                     21                       # average number of instructions
cpu.DDQ:rate_1                                     21                       # average number of instructions
cpu.DDQ:rate_2                                     26                       # average number of instructions
cpu.DDQ:rate_3                                     22                       # average number of instructions
cpu.DIS:chain_creation.start_dist
     Inst has no outstanding IDEPS            0      0.00%            # Reason that chain head was created
      IDEP chain reached max depth            0      0.00%            # Reason that chain head was created
                    Inst is a load            0      0.00%            # Reason that chain head was created
  Chain has multiple chained IDEPS            0      0.00%            # Reason that chain head was created
cpu.DIS:chain_creation.end_dist
cpu.DIS:chain_head_frac                             0                       # fraction of insts that are chain heads
cpu.DIS:chain_head_frac_0                           0                       # fraction of insts that are chain heads
cpu.DIS:chain_head_frac_1                           0                       # fraction of insts that are chain heads
cpu.DIS:chain_head_frac_2                           0                       # fraction of insts that are chain heads
cpu.DIS:chain_head_frac_3                           0                       # fraction of insts that are chain heads
cpu.DIS:chain_heads                                 0                       # number insts that are chain heads
cpu.DIS:chain_heads_0                               0                       # number insts that are chain heads
cpu.DIS:chain_heads_1                               0                       # number insts that are chain heads
cpu.DIS:chain_heads_2                               0                       # number insts that are chain heads
cpu.DIS:chain_heads_3                               0                       # number insts that are chain heads
cpu.DIS:chains_insuf                                0                       # number of times thread had insuf chains
cpu.DIS:chains_insuf_0                              0                       # number of times thread had insuf chains
cpu.DIS:chains_insuf_1                              0                       # number of times thread had insuf chains
cpu.DIS:chains_insuf_2                              0                       # number of times thread had insuf chains
cpu.DIS:chains_insuf_3                              0                       # number of times thread had insuf chains
cpu.DIS:chains_insuf_rate                           0                       # rate that thread had insuf chains
cpu.DIS:chains_insuf_rate_0                         0                       # rate that thread had insuf chains
cpu.DIS:chains_insuf_rate_1                         0                       # rate that thread had insuf chains
cpu.DIS:chains_insuf_rate_2                         0                       # rate that thread had insuf chains
cpu.DIS:chains_insuf_rate_3                         0                       # rate that thread had insuf chains
cpu.DIS:count                                 4535632                       # cumulative count of dispatched insts
cpu.DIS:count_0                               1047260                       # cumulative count of dispatched insts
cpu.DIS:count_1                               1053895                       # cumulative count of dispatched insts
cpu.DIS:count_2                               1316461                       # cumulative count of dispatched insts
cpu.DIS:count_3                               1118016                       # cumulative count of dispatched insts
cpu.DIS:insufficient_chains                         0                       # Number of instances where dispatch stopped
cpu.DIS:mod_n_stall_avg_free                 no value                       # avg free slots per cycle
cpu.DIS:mod_n_stall_avg_free_0               no value                       # avg free slots per cycle
cpu.DIS:mod_n_stall_avg_free_1               no value                       # avg free slots per cycle
cpu.DIS:mod_n_stall_avg_free_2               no value                       # avg free slots per cycle
cpu.DIS:mod_n_stall_avg_free_3               no value                       # avg free slots per cycle
cpu.DIS:mod_n_stall_frac                            0                       # avg stalls per cycle
cpu.DIS:mod_n_stall_frac_0                          0                       # avg stalls per cycle
cpu.DIS:mod_n_stall_frac_1                          0                       # avg stalls per cycle
cpu.DIS:mod_n_stall_frac_2                          0                       # avg stalls per cycle
cpu.DIS:mod_n_stall_frac_3                          0                       # avg stalls per cycle
cpu.DIS:mod_n_stall_free                            0                       # free slots when dispatch stalled due to mod-n
cpu.DIS:mod_n_stall_free_0                          0                       # free slots when dispatch stalled due to mod-n
cpu.DIS:mod_n_stall_free_1                          0                       # free slots when dispatch stalled due to mod-n
cpu.DIS:mod_n_stall_free_2                          0                       # free slots when dispatch stalled due to mod-n
cpu.DIS:mod_n_stall_free_3                          0                       # free slots when dispatch stalled due to mod-n
cpu.DIS:mod_n_stalls                                0                       # cycles where dispatch stalled due to mod-n
cpu.DIS:mod_n_stalls_0                              0                       # cycles where dispatch stalled due to mod-n
cpu.DIS:mod_n_stalls_1                              0                       # cycles where dispatch stalled due to mod-n
cpu.DIS:mod_n_stalls_2                              0                       # cycles where dispatch stalled due to mod-n
cpu.DIS:mod_n_stalls_3                              0                       # cycles where dispatch stalled due to mod-n
cpu.DIS:one_rdy_insts                               0                       # number of 2-op insts w/ one rdy op
cpu.DIS:one_rdy_insts_0                             0                       # number of 2-op insts w/ one rdy op
cpu.DIS:one_rdy_insts_1                             0                       # number of 2-op insts w/ one rdy op
cpu.DIS:one_rdy_insts_2                             0                       # number of 2-op insts w/ one rdy op
cpu.DIS:one_rdy_insts_3                             0                       # number of 2-op insts w/ one rdy op
cpu.DIS:one_rdy_ratio                        no value                       # fraction of 2-op insts w/ one ready op
cpu.DIS:one_rdy_ratio_0                      no value                       # fraction of 2-op insts w/ one ready op
cpu.DIS:one_rdy_ratio_1                      no value                       # fraction of 2-op insts w/ one ready op
cpu.DIS:one_rdy_ratio_2                      no value                       # fraction of 2-op insts w/ one ready op
cpu.DIS:one_rdy_ratio_3                      no value                       # fraction of 2-op insts w/ one ready op
cpu.DIS:op_count                              6159963                       # number of operations dispatched
cpu.DIS:op_count_0                            1421754                       # number of operations dispatched
cpu.DIS:op_count_1                            1431239                       # number of operations dispatched
cpu.DIS:op_count_2                            1787980                       # number of operations dispatched
cpu.DIS:op_count_3                            1518990                       # number of operations dispatched
cpu.DIS:op_rate                              3.467458                       # dispatched operations per cycle
cpu.DIS:op_rate_0                            0.800309                       # dispatched operations per cycle
cpu.DIS:op_rate_1                            0.805648                       # dispatched operations per cycle
cpu.DIS:op_rate_2                            1.006458                       # dispatched operations per cycle
cpu.DIS:op_rate_3                            0.855043                       # dispatched operations per cycle
cpu.DIS:rate                                 2.553118                       # dispatched_insts per cycle
cpu.DIS:rate_0                               0.589505                       # dispatched_insts per cycle
cpu.DIS:rate_1                               0.593240                       # dispatched_insts per cycle
cpu.DIS:rate_2                               0.741039                       # dispatched_insts per cycle
cpu.DIS:rate_3                               0.629334                       # dispatched_insts per cycle
cpu.DIS:second_choice_clust                         0                       # Number of instructions dispatched to second-choice cluster
cpu.DIS:second_choice_stall                         0                       # Number of instructions stalled when first choice not available
cpu.DIS:serialize_stall_cycles                      0                       # count of cycles dispatch stalled for serializing inst
cpu.DIS:serialize_stall_cycles_0                    0                       # count of cycles dispatch stalled for serializing inst
cpu.DIS:serialize_stall_cycles_1                    0                       # count of cycles dispatch stalled for serializing inst
cpu.DIS:serialize_stall_cycles_2                    0                       # count of cycles dispatch stalled for serializing inst
cpu.DIS:serialize_stall_cycles_3                    0                       # count of cycles dispatch stalled for serializing inst
cpu.DIS:serializing_insts                           0                       # count of serializing insts dispatched
cpu.DIS:serializing_insts_0                         0                       # count of serializing insts dispatched
cpu.DIS:serializing_insts_1                         0                       # count of serializing insts dispatched
cpu.DIS:serializing_insts_2                         0                       # count of serializing insts dispatched
cpu.DIS:serializing_insts_3                         0                       # count of serializing insts dispatched
cpu.DIS:two_input_insts                             0                       # Number of two input instructions queued
cpu.DIS:two_input_insts_0                           0                       # Number of two input instructions queued
cpu.DIS:two_input_insts_1                           0                       # Number of two input instructions queued
cpu.DIS:two_input_insts_2                           0                       # Number of two input instructions queued
cpu.DIS:two_input_insts_3                           0                       # Number of two input instructions queued
cpu.DIS:two_input_ratio                             0                       # fraction of all insts having 2 inputs
cpu.DIS:two_input_ratio_0                           0                       # fraction of all insts having 2 inputs
cpu.DIS:two_input_ratio_1                           0                       # fraction of all insts having 2 inputs
cpu.DIS:two_input_ratio_2                           0                       # fraction of all insts having 2 inputs
cpu.DIS:two_input_ratio_3                           0                       # fraction of all insts having 2 inputs
cpu.FETCH:branch_count                         797317                       # Number of branches fetched
cpu.FETCH:branch_count_0                       177043                       # Number of branches fetched
cpu.FETCH:branch_count_1                       178092                       # Number of branches fetched
cpu.FETCH:branch_count_2                       245297                       # Number of branches fetched
cpu.FETCH:branch_count_3                       196885                       # Number of branches fetched
cpu.FETCH:branch_rate                        0.448812                       # Number of branch fetches per cycle
cpu.FETCH:branch_rate_0                      0.099658                       # Number of branch fetches per cycle
cpu.FETCH:branch_rate_1                      0.100248                       # Number of branch fetches per cycle
cpu.FETCH:branch_rate_2                      0.138078                       # Number of branch fetches per cycle
cpu.FETCH:branch_rate_3                      0.110827                       # Number of branch fetches per cycle
cpu.FETCH:chance_pct_0                       0.223364                       # Percentage of all fetch chances
cpu.FETCH:chance_pct_1                       0.225093                       # Percentage of all fetch chances
cpu.FETCH:chance_pct_2                       0.304266                       # Percentage of all fetch chances
cpu.FETCH:chance_pct_3                       0.247278                       # Percentage of all fetch chances
cpu.FETCH:chances                              844488                       # Number of fetch opportunities
cpu.FETCH:chances_0                            188628                       # Number of fetch opportunities
cpu.FETCH:chances_1                            190088                       # Number of fetch opportunities
cpu.FETCH:chances_2                            256949                       # Number of fetch opportunities
cpu.FETCH:chances_3                            208823                       # Number of fetch opportunities
cpu.FETCH:choice                               844488                       # Number of times we fetched from our first choice
cpu.FETCH:choice.start_dist
                               0       844488    100.00%            # Number of times we fetched from our first choice
                               1            0      0.00%            # Number of times we fetched from our first choice
                               2            0      0.00%            # Number of times we fetched from our first choice
                               3            0      0.00%            # Number of times we fetched from our first choice
cpu.FETCH:choice.end_dist
cpu.FETCH:count                               6188286                       # Number of instructions fetched
cpu.FETCH:count_0                             1366382                       # Number of instructions fetched
cpu.FETCH:count_1                             1380875                       # Number of instructions fetched
cpu.FETCH:count_2                             1913100                       # Number of instructions fetched
cpu.FETCH:count_3                             1527929                       # Number of instructions fetched
cpu.FETCH:decisions                            844488                       # number of times the fetch stage chose between threads
cpu.FETCH:idle_cycles                          932019                       # number of cycles where fetch stage was idle
cpu.FETCH:idle_icache_blocked_cycles               58                       # number of cycles where fetch was idle due to icache blocked
cpu.FETCH:idle_rate                             52.46                       # percent of cycles fetch stage was idle
cpu.FETCH:prio_changes                              0                       # Number of times priorities were changed
cpu.FETCH:prio_changes_0                            0                       # Number of times priorities were changed
cpu.FETCH:prio_changes_1                            0                       # Number of times priorities were changed
cpu.FETCH:prio_changes_2                            0                       # Number of times priorities were changed
cpu.FETCH:prio_changes_3                            0                       # Number of times priorities were changed
cpu.FETCH:rate                               3.483401                       # Number of inst fetches per cycle
cpu.FETCH:rate_0                             0.769140                       # Number of inst fetches per cycle
cpu.FETCH:rate_1                             0.777298                       # Number of inst fetches per cycle
cpu.FETCH:rate_2                             1.076889                       # Number of inst fetches per cycle
cpu.FETCH:rate_3                             0.860075                       # Number of inst fetches per cycle
cpu.FETCH:rate_dist.start_dist                                 # Number of instructions fetched each cycle (Total)
cpu.FETCH:rate_dist.samples                    844488                      
cpu.FETCH:rate_dist.min_value                       0                      
                               0         1618     19.16%           
                               1        12919    152.98%           
                               2        11262    133.36%           
                               3        19288    228.40%           
                               4        32559    385.55%           
                               5        25221    298.65%           
                               6        31033    367.48%           
                               7        32264    382.05%           
                               8       678324   8032.37%           
cpu.FETCH:rate_dist.max_value                       8                      
cpu.FETCH:rate_dist.end_dist

cpu.FETCH:rate_dist_0.start_dist                               # Number of instructions fetched each cycle (Thread 0)
cpu.FETCH:rate_dist_0.samples                  188628                      
cpu.FETCH:rate_dist_0.min_value                     0                      
                               0          468     24.81%           
                               1         3210    170.18%           
                               2         2790    147.91%           
                               3         4873    258.34%           
                               4         8341    442.19%           
                               5         6301    334.04%           
                               6         7657    405.93%           
                               7         7742    410.44%           
                               8       147246   7806.16%           
cpu.FETCH:rate_dist_0.max_value                     8                      
cpu.FETCH:rate_dist_0.end_dist

cpu.FETCH:rate_dist_1.start_dist                               # Number of instructions fetched each cycle (Thread 1)
cpu.FETCH:rate_dist_1.samples                  190088                      
cpu.FETCH:rate_dist_1.min_value                     0                      
                               0           55      2.89%           
                               1         3208    168.76%           
                               2         2840    149.40%           
                               3         4876    256.51%           
                               4         8285    435.85%           
                               5         6386    335.95%           
                               6         7716    405.92%           
                               7         7783    409.44%           
                               8       148939   7835.27%           
cpu.FETCH:rate_dist_1.max_value                     8                      
cpu.FETCH:rate_dist_1.end_dist

cpu.FETCH:rate_dist_2.start_dist                               # Number of instructions fetched each cycle (Thread 2)
cpu.FETCH:rate_dist_2.samples                  256949                      
cpu.FETCH:rate_dist_2.min_value                     0                      
                               0          940     36.58%           
                               1         3114    121.19%           
                               2         2709    105.43%           
                               3         4665    181.55%           
                               4         7619    296.52%           
                               5         6203    241.41%           
                               6         7874    306.44%           
                               7         8762    341.00%           
                               8       215063   8369.87%           
cpu.FETCH:rate_dist_2.max_value                     8                      
cpu.FETCH:rate_dist_2.end_dist

cpu.FETCH:rate_dist_3.start_dist                               # Number of instructions fetched each cycle (Thread 3)
cpu.FETCH:rate_dist_3.samples                  208823                      
cpu.FETCH:rate_dist_3.min_value                     0                      
                               0          155      7.42%           
                               1         3387    162.19%           
                               2         2923    139.98%           
                               3         4874    233.40%           
                               4         8314    398.14%           
                               5         6331    303.18%           
                               6         7786    372.85%           
                               7         7977    382.00%           
                               8       167076   8000.84%           
cpu.FETCH:rate_dist_3.max_value                     8                      
cpu.FETCH:rate_dist_3.end_dist

cpu.IFQ:count                                52944454                       # cumulative IFQ occupancy
cpu.IFQ:full_count                             441360                       # cumulative IFQ full count
cpu.IFQ:full_count_0                            98965                       # cumulative IFQ full count
cpu.IFQ:full_count_1                           101511                       # cumulative IFQ full count
cpu.IFQ:full_count_2                           129959                       # cumulative IFQ full count
cpu.IFQ:full_count_3                           110925                       # cumulative IFQ full count
cpu.IFQ:full_rate                           24.844259                       # fraction of time (cycle's) IFQ was full
cpu.IFQ:full_rate_0                          5.570763                       # fraction of time (cycle's) IFQ was full
cpu.IFQ:full_rate_1                          5.714078                       # fraction of time (cycle's) IFQ was full
cpu.IFQ:full_rate_2                          7.315423                       # fraction of time (cycle's) IFQ was full
cpu.IFQ:full_rate_3                          6.243995                       # fraction of time (cycle's) IFQ was full
cpu.IFQ:latency                             11.673005                       # avg IFQ occupant latency (cycle's)
cpu.IFQ:latency_0                           50.555215                       # avg IFQ occupant latency (cycle's)
cpu.IFQ:latency_1                           50.236934                       # avg IFQ occupant latency (cycle's)
cpu.IFQ:latency_2                           40.217260                       # avg IFQ occupant latency (cycle's)
cpu.IFQ:latency_3                           47.355721                       # avg IFQ occupant latency (cycle's)
cpu.IFQ:occupancy                           29.802559                       # avg IFQ occupancy (inst's)
cpu.IFQ:qfull_iq_occ                         21025979                       # Number of insts in IQ when fetch-queue full
cpu.IFQ:qfull_iq_occ_0                        5077327                       # Number of insts in IQ when fetch-queue full
cpu.IFQ:qfull_iq_occ_1                        5169558                       # Number of insts in IQ when fetch-queue full
cpu.IFQ:qfull_iq_occ_2                        5431616                       # Number of insts in IQ when fetch-queue full
cpu.IFQ:qfull_iq_occ_3                        5347478                       # Number of insts in IQ when fetch-queue full
cpu.IFQ:qfull_iq_occ_dist_0.start_dist                         # Number of insts in IQ when fetch-queue full
cpu.IFQ:qfull_iq_occ_dist_0.samples            374611                      
cpu.IFQ:qfull_iq_occ_dist_0.min_value               0                      
                               0        92397   2466.48%           
                              10       256080   6835.89%           
                              20        15168    404.90%           
                              30         5860    156.43%           
                              40         1670     44.58%           
                              50         2336     62.36%           
                              60         1100     29.36%           
cpu.IFQ:qfull_iq_occ_dist_0.max_value              64                      
cpu.IFQ:qfull_iq_occ_dist_0.end_dist

cpu.IFQ:qfull_iq_occ_dist_1.start_dist                         # Number of insts in IQ when fetch-queue full
cpu.IFQ:qfull_iq_occ_dist_1.samples            374611                      
cpu.IFQ:qfull_iq_occ_dist_1.min_value               0                      
                               0        87923   2347.05%           
                              10       257822   6882.39%           
                              20        18499    493.82%           
                              30         5074    135.45%           
                              40         2095     55.92%           
                              50         1875     50.05%           
                              60         1323     35.32%           
cpu.IFQ:qfull_iq_occ_dist_1.max_value              64                      
cpu.IFQ:qfull_iq_occ_dist_1.end_dist

cpu.IFQ:qfull_iq_occ_dist_2.start_dist                         # Number of insts in IQ when fetch-queue full
cpu.IFQ:qfull_iq_occ_dist_2.samples            374611                      
cpu.IFQ:qfull_iq_occ_dist_2.min_value               0                      
                               0        79951   2134.24%           
                              10       261731   6986.74%           
                              20        17982    480.02%           
                              30         5709    152.40%           
                              40         2744     73.25%           
                              50         4130    110.25%           
                              60         2364     63.11%           
cpu.IFQ:qfull_iq_occ_dist_2.max_value              64                      
cpu.IFQ:qfull_iq_occ_dist_2.end_dist

cpu.IFQ:qfull_iq_occ_dist_3.start_dist                         # Number of insts in IQ when fetch-queue full
cpu.IFQ:qfull_iq_occ_dist_3.samples            374611                      
cpu.IFQ:qfull_iq_occ_dist_3.min_value               0                      
                               0        86031   2296.54%           
                              10       257063   6862.13%           
                              20        15831    422.60%           
                              30         6367    169.96%           
                              40         3358     89.64%           
                              50         3631     96.93%           
                              60         2330     62.20%           
cpu.IFQ:qfull_iq_occ_dist_3.max_value              64                      
cpu.IFQ:qfull_iq_occ_dist_3.end_dist

cpu.IFQ:qfull_rob_occ                        37040938                       # Number of insts in ROB when fetch-queue full
cpu.IFQ:qfull_rob_occ_0                       8897820                       # Number of insts in ROB when fetch-queue full
cpu.IFQ:qfull_rob_occ_1                       9132630                       # Number of insts in ROB when fetch-queue full
cpu.IFQ:qfull_rob_occ_2                       9760433                       # Number of insts in ROB when fetch-queue full
cpu.IFQ:qfull_rob_occ_3                       9250055                       # Number of insts in ROB when fetch-queue full
cpu.IFQ:qfull_rob_occ_dist_0.start_dist                        # Number of insts in ROB when fetch-queue full
cpu.IFQ:qfull_rob_occ_dist_0.samples           374611                      
cpu.IFQ:qfull_rob_occ_dist_0.min_value              0                      
                               0        56120   1498.09%           
                              10        24948    665.97%           
                              20       250476   6686.30%           
                              30        16410    438.05%           
                              40         7883    210.43%           
                              50         3897    104.03%           
                              60         3147     84.01%           
                              70         2020     53.92%           
                              80         2233     59.61%           
                              90         2313     61.74%           
                             100         1080     28.83%           
                             110          791     21.12%           
                             120          558     14.90%           
                             130          348      9.29%           
                             140          350      9.34%           
                             150          471     12.57%           
                             160          192      5.13%           
                             170          450     12.01%           
                             180          450     12.01%           
                             190          474     12.65%           
                             200            0      0.00%           
cpu.IFQ:qfull_rob_occ_dist_0.max_value            196                      
cpu.IFQ:qfull_rob_occ_dist_0.end_dist

cpu.IFQ:qfull_rob_occ_dist_1.start_dist                        # Number of insts in ROB when fetch-queue full
cpu.IFQ:qfull_rob_occ_dist_1.samples           374611                      
cpu.IFQ:qfull_rob_occ_dist_1.min_value              0                      
                               0        53225   1420.81%           
                              10        23242    620.43%           
                              20       252222   6732.90%           
                              30        17060    455.41%           
                              40         6742    179.97%           
                              50         5032    134.33%           
                              60         2911     77.71%           
                              70         3039     81.12%           
                              80         2366     63.16%           
                              90         1696     45.27%           
                             100         1495     39.91%           
                             110          852     22.74%           
                             120         1331     35.53%           
                             130         1281     34.20%           
                             140          518     13.83%           
                             150          449     11.99%           
                             160          401     10.70%           
                             170          129      3.44%           
                             180          256      6.83%           
                             190          364      9.72%           
                             200            0      0.00%           
cpu.IFQ:qfull_rob_occ_dist_1.max_value            196                      
cpu.IFQ:qfull_rob_occ_dist_1.end_dist

cpu.IFQ:qfull_rob_occ_dist_2.start_dist                        # Number of insts in ROB when fetch-queue full
cpu.IFQ:qfull_rob_occ_dist_2.samples           374611                      
cpu.IFQ:qfull_rob_occ_dist_2.min_value              0                      
                               0        50238   1341.07%           
                              10        21023    561.20%           
                              20       253528   6767.77%           
                              30        14391    384.16%           
                              40         8133    217.11%           
                              50         5350    142.81%           
                              60         3374     90.07%           
                              70         3662     97.75%           
                              80         2081     55.55%           
                              90         2788     74.42%           
                             100         1980     52.85%           
                             110         1436     38.33%           
                             120         1004     26.80%           
                             130          840     22.42%           
                             140          559     14.92%           
                             150          574     15.32%           
                             160          394     10.52%           
                             170          464     12.39%           
                             180         1596     42.60%           
                             190         1196     31.93%           
                             200            0      0.00%           
cpu.IFQ:qfull_rob_occ_dist_2.max_value            196                      
cpu.IFQ:qfull_rob_occ_dist_2.end_dist

cpu.IFQ:qfull_rob_occ_dist_3.start_dist                        # Number of insts in ROB when fetch-queue full
cpu.IFQ:qfull_rob_occ_dist_3.samples           374611                      
cpu.IFQ:qfull_rob_occ_dist_3.min_value              0                      
                               0        53814   1436.53%           
                              10        25991    693.81%           
                              20       249038   6647.91%           
                              30        13854    369.82%           
                              40         7102    189.58%           
                              50         6166    164.60%           
                              60         4563    121.81%           
                              70         3774    100.74%           
                              80         1611     43.00%           
                              90         1779     47.49%           
                             100         1032     27.55%           
                             110          840     22.42%           
                             120          797     21.28%           
                             130          837     22.34%           
                             140          517     13.80%           
                             150          484     12.92%           
                             160          507     13.53%           
                             170          429     11.45%           
                             180          799     21.33%           
                             190          677     18.07%           
                             200            0      0.00%           
cpu.IFQ:qfull_rob_occ_dist_3.max_value            196                      
cpu.IFQ:qfull_rob_occ_dist_3.end_dist

cpu.IQ:cap_events                                   0                       # number of cycles where IQ cap was active
cpu.IQ:cap_events_0                                 0                       # number of cycles where IQ cap was active
cpu.IQ:cap_events_1                                 0                       # number of cycles where IQ cap was active
cpu.IQ:cap_events_2                                 0                       # number of cycles where IQ cap was active
cpu.IQ:cap_events_3                                 0                       # number of cycles where IQ cap was active
cpu.IQ:cap_inst                                     0                       # number of instructions held up by IQ cap
cpu.IQ:cap_inst_0                                   0                       # number of instructions held up by IQ cap
cpu.IQ:cap_inst_1                                   0                       # number of instructions held up by IQ cap
cpu.IQ:cap_inst_2                                   0                       # number of instructions held up by IQ cap
cpu.IQ:cap_inst_3                                   0                       # number of instructions held up by IQ cap
cpu.IQ:residence:(null).start_dist                             # cycles from dispatch to issue
cpu.IQ:residence:(null).samples                     0                      
cpu.IQ:residence:(null).min_value                   0                      
                               0            0                      
                               2            0                      
                               4            0                      
                               6            0                      
                               8            0                      
                              10            0                      
                              12            0                      
                              14            0                      
                              16            0                      
                              18            0                      
                              20            0                      
                              22            0                      
                              24            0                      
                              26            0                      
                              28            0                      
                              30            0                      
                              32            0                      
                              34            0                      
                              36            0                      
                              38            0                      
                              40            0                      
                              42            0                      
                              44            0                      
                              46            0                      
                              48            0                      
                              50            0                      
                              52            0                      
                              54            0                      
                              56            0                      
                              58            0                      
                              60            0                      
                              62            0                      
                              64            0                      
                              66            0                      
                              68            0                      
                              70            0                      
                              72            0                      
                              74            0                      
                              76            0                      
                              78            0                      
                              80            0                      
                              82            0                      
                              84            0                      
                              86            0                      
                              88            0                      
                              90            0                      
                              92            0                      
                              94            0                      
                              96            0                      
                              98            0                      
cpu.IQ:residence:(null).max_value                   0                      
cpu.IQ:residence:(null).end_dist

cpu.IQ:residence:IntAlu.start_dist                             # cycles from dispatch to issue
cpu.IQ:residence:IntAlu.samples               2675396                      
cpu.IQ:residence:IntAlu.min_value                   1                      
                               0       738322   2759.67%   2759.67%
                               2       498495   1863.26%   4622.93%
                               4       256951    960.42%   5583.35%
                               6       400334   1496.35%   7079.71%
                               8       204930    765.98%   7845.69%
                              10       148751    556.00%   8401.68%
                              12        96418    360.39%   8762.07%
                              14        65399    244.45%   9006.52%
                              16        47150    176.24%   9182.75%
                              18        32135    120.11%   9302.87%
                              20        24634     92.08%   9394.94%
                              22        22456     83.94%   9478.88%
                              24        15619     58.38%   9537.26%
                              26        12627     47.20%   9584.45%
                              28        11341     42.39%   9626.84%
                              30         8591     32.11%   9658.96%
                              32         6289     23.51%   9682.46%
                              34         4834     18.07%   9700.53%
                              36         4309     16.11%   9716.64%
                              38         3232     12.08%   9728.72%
                              40         3011     11.25%   9739.97%
                              42         3694     13.81%   9753.78%
                              44         3171     11.85%   9765.63%
                              46         2438      9.11%   9774.74%
                              48         2172      8.12%   9782.86%
                              50         1767      6.60%   9789.47%
                              52         1431      5.35%   9794.82%
                              54         1152      4.31%   9799.12%
                              56         1034      3.86%   9802.99%
                              58         1012      3.78%   9806.77%
                              60         1047      3.91%   9810.68%
                              62         1134      4.24%   9814.92%
                              64         1040      3.89%   9818.81%
                              66          811      3.03%   9821.84%
                              68          614      2.29%   9824.13%
                              70          499      1.87%   9826.00%
                              72          496      1.85%   9827.85%
                              74          565      2.11%   9829.97%
                              76          623      2.33%   9832.29%
                              78          511      1.91%   9834.20%
                              80          469      1.75%   9835.96%
                              82          433      1.62%   9837.58%
                              84          419      1.57%   9839.14%
                              86          320      1.20%   9840.34%
                              88          372      1.39%   9841.73%
                              90          334      1.25%   9842.98%
                              92          342      1.28%   9844.25%
                              94          398      1.49%   9845.74%
                              96          397      1.48%   9847.23%
                              98          414      1.55%   9848.77%
cpu.IQ:residence:IntAlu.overflows               40459                      
cpu.IQ:residence:IntAlu.max_value                1011                      
cpu.IQ:residence:IntAlu.end_dist

cpu.IQ:residence:IntMult.start_dist                            # cycles from dispatch to issue
cpu.IQ:residence:IntMult.samples                 6983                      
cpu.IQ:residence:IntMult.min_value                  1                      
                               0         1250   1790.06%   1790.06%
                               2         1420   2033.51%   3823.57%
                               4          546    781.90%   4605.47%
                               6         1881   2693.68%   7299.16%
                               8          748   1071.17%   8370.33%
                              10          458    655.88%   9026.21%
                              12          298    426.75%   9452.96%
                              14          124    177.57%   9630.53%
                              16           50     71.60%   9702.13%
                              18           29     41.53%   9743.66%
                              20           39     55.85%   9799.51%
                              22           77    110.27%   9909.78%
                              24           23     32.94%   9942.72%
                              26           17     24.34%   9967.06%
                              28            3      4.30%   9971.36%
                              30            2      2.86%   9974.22%
                              32            1      1.43%   9975.66%
                              34            0      0.00%   9975.66%
                              36            1      1.43%   9977.09%
                              38            1      1.43%   9978.52%
                              40            0      0.00%   9978.52%
                              42            0      0.00%   9978.52%
                              44            1      1.43%   9979.95%
                              46            0      0.00%   9979.95%
                              48            0      0.00%   9979.95%
                              50            0      0.00%   9979.95%
                              52            0      0.00%   9979.95%
                              54            0      0.00%   9979.95%
                              56            0      0.00%   9979.95%
                              58            0      0.00%   9979.95%
                              60            0      0.00%   9979.95%
                              62            0      0.00%   9979.95%
                              64            0      0.00%   9979.95%
                              66            0      0.00%   9979.95%
                              68            0      0.00%   9979.95%
                              70            0      0.00%   9979.95%
                              72            0      0.00%   9979.95%
                              74            0      0.00%   9979.95%
                              76            0      0.00%   9979.95%
                              78            0      0.00%   9979.95%
                              80            0      0.00%   9979.95%
                              82            0      0.00%   9979.95%
                              84            0      0.00%   9979.95%
                              86            0      0.00%   9979.95%
                              88            0      0.00%   9979.95%
                              90            1      1.43%   9981.38%
                              92            0      0.00%   9981.38%
                              94            0      0.00%   9981.38%
                              96            0      0.00%   9981.38%
                              98            0      0.00%   9981.38%
cpu.IQ:residence:IntMult.overflows                 13                      
cpu.IQ:residence:IntMult.max_value                139                      
cpu.IQ:residence:IntMult.end_dist

cpu.IQ:residence:IntDiv.start_dist                             # cycles from dispatch to issue
cpu.IQ:residence:IntDiv.samples                     0                      
cpu.IQ:residence:IntDiv.min_value                   0                      
                               0            0                      
                               2            0                      
                               4            0                      
                               6            0                      
                               8            0                      
                              10            0                      
                              12            0                      
                              14            0                      
                              16            0                      
                              18            0                      
                              20            0                      
                              22            0                      
                              24            0                      
                              26            0                      
                              28            0                      
                              30            0                      
                              32            0                      
                              34            0                      
                              36            0                      
                              38            0                      
                              40            0                      
                              42            0                      
                              44            0                      
                              46            0                      
                              48            0                      
                              50            0                      
                              52            0                      
                              54            0                      
                              56            0                      
                              58            0                      
                              60            0                      
                              62            0                      
                              64            0                      
                              66            0                      
                              68            0                      
                              70            0                      
                              72            0                      
                              74            0                      
                              76            0                      
                              78            0                      
                              80            0                      
                              82            0                      
                              84            0                      
                              86            0                      
                              88            0                      
                              90            0                      
                              92            0                      
                              94            0                      
                              96            0                      
                              98            0                      
cpu.IQ:residence:IntDiv.max_value                   0                      
cpu.IQ:residence:IntDiv.end_dist

cpu.IQ:residence:FloatAdd.start_dist                           # cycles from dispatch to issue
cpu.IQ:residence:FloatAdd.samples                 423                      
cpu.IQ:residence:FloatAdd.min_value                 1                      
                               0           23    543.74%    543.74%
                               2           96   2269.50%   2813.24%
                               4           22    520.09%   3333.33%
                               6           12    283.69%   3617.02%
                               8           17    401.89%   4018.91%
                              10           36    851.06%   4869.98%
                              12           99   2340.43%   7210.40%
                              14            9    212.77%   7423.17%
                              16           12    283.69%   7706.86%
                              18           12    283.69%   7990.54%
                              20            2     47.28%   8037.83%
                              22           10    236.41%   8274.23%
                              24           30    709.22%   8983.45%
                              26           32    756.50%   9739.95%
                              28            1     23.64%   9763.59%
                              30            5    118.20%   9881.80%
                              32            0      0.00%   9881.80%
                              34            0      0.00%   9881.80%
                              36            1     23.64%   9905.44%
                              38            0      0.00%   9905.44%
                              40            0      0.00%   9905.44%
                              42            0      0.00%   9905.44%
                              44            0      0.00%   9905.44%
                              46            0      0.00%   9905.44%
                              48            0      0.00%   9905.44%
                              50            0      0.00%   9905.44%
                              52            0      0.00%   9905.44%
                              54            0      0.00%   9905.44%
                              56            0      0.00%   9905.44%
                              58            0      0.00%   9905.44%
                              60            0      0.00%   9905.44%
                              62            0      0.00%   9905.44%
                              64            0      0.00%   9905.44%
                              66            0      0.00%   9905.44%
                              68            0      0.00%   9905.44%
                              70            0      0.00%   9905.44%
                              72            0      0.00%   9905.44%
                              74            0      0.00%   9905.44%
                              76            0      0.00%   9905.44%
                              78            0      0.00%   9905.44%
                              80            0      0.00%   9905.44%
                              82            0      0.00%   9905.44%
                              84            0      0.00%   9905.44%
                              86            0      0.00%   9905.44%
                              88            0      0.00%   9905.44%
                              90            0      0.00%   9905.44%
                              92            0      0.00%   9905.44%
                              94            0      0.00%   9905.44%
                              96            0      0.00%   9905.44%
                              98            0      0.00%   9905.44%
cpu.IQ:residence:FloatAdd.overflows                 4                      
cpu.IQ:residence:FloatAdd.max_value               139                      
cpu.IQ:residence:FloatAdd.end_dist

cpu.IQ:residence:FloatCmp.start_dist                           # cycles from dispatch to issue
cpu.IQ:residence:FloatCmp.samples                   8                      
cpu.IQ:residence:FloatCmp.min_value                 9                      
                               0            0      0.00%      0.00%
                               2            0      0.00%      0.00%
                               4            0      0.00%      0.00%
                               6            0      0.00%      0.00%
                               8            1   1250.00%   1250.00%
                              10            3   3750.00%   5000.00%
                              12            0      0.00%   5000.00%
                              14            0      0.00%   5000.00%
                              16            0      0.00%   5000.00%
                              18            0      0.00%   5000.00%
                              20            0      0.00%   5000.00%
                              22            0      0.00%   5000.00%
                              24            0      0.00%   5000.00%
                              26            0      0.00%   5000.00%
                              28            0      0.00%   5000.00%
                              30            0      0.00%   5000.00%
                              32            0      0.00%   5000.00%
                              34            0      0.00%   5000.00%
                              36            0      0.00%   5000.00%
                              38            0      0.00%   5000.00%
                              40            0      0.00%   5000.00%
                              42            0      0.00%   5000.00%
                              44            0      0.00%   5000.00%
                              46            0      0.00%   5000.00%
                              48            0      0.00%   5000.00%
                              50            0      0.00%   5000.00%
                              52            0      0.00%   5000.00%
                              54            0      0.00%   5000.00%
                              56            0      0.00%   5000.00%
                              58            0      0.00%   5000.00%
                              60            0      0.00%   5000.00%
                              62            0      0.00%   5000.00%
                              64            0      0.00%   5000.00%
                              66            0      0.00%   5000.00%
                              68            0      0.00%   5000.00%
                              70            0      0.00%   5000.00%
                              72            0      0.00%   5000.00%
                              74            0      0.00%   5000.00%
                              76            0      0.00%   5000.00%
                              78            0      0.00%   5000.00%
                              80            0      0.00%   5000.00%
                              82            0      0.00%   5000.00%
                              84            0      0.00%   5000.00%
                              86            0      0.00%   5000.00%
                              88            0      0.00%   5000.00%
                              90            0      0.00%   5000.00%
                              92            0      0.00%   5000.00%
                              94            0      0.00%   5000.00%
                              96            0      0.00%   5000.00%
                              98            0      0.00%   5000.00%
cpu.IQ:residence:FloatCmp.overflows                 4                      
cpu.IQ:residence:FloatCmp.max_value               137                      
cpu.IQ:residence:FloatCmp.end_dist

cpu.IQ:residence:FloatCvt.start_dist                           # cycles from dispatch to issue
cpu.IQ:residence:FloatCvt.samples                 534                      
cpu.IQ:residence:FloatCvt.min_value                 1                      
                               0          210   3932.58%   3932.58%
                               2           44    823.97%   4756.55%
                               4            3     56.18%   4812.73%
                               6            9    168.54%   4981.27%
                               8           11    205.99%   5187.27%
                              10          122   2284.64%   7471.91%
                              12           18    337.08%   7808.99%
                              14            7    131.09%   7940.07%
                              16            7    131.09%   8071.16%
                              18            5     93.63%   8164.79%
                              20            8    149.81%   8314.61%
                              22            5     93.63%   8408.24%
                              24            8    149.81%   8558.05%
                              26           30    561.80%   9119.85%
                              28           33    617.98%   9737.83%
                              30            2     37.45%   9775.28%
                              32            4     74.91%   9850.19%
                              34            0      0.00%   9850.19%
                              36            0      0.00%   9850.19%
                              38            1     18.73%   9868.91%
                              40            0      0.00%   9868.91%
                              42            1     18.73%   9887.64%
                              44            0      0.00%   9887.64%
                              46            0      0.00%   9887.64%
                              48            0      0.00%   9887.64%
                              50            0      0.00%   9887.64%
                              52            0      0.00%   9887.64%
                              54            0      0.00%   9887.64%
                              56            0      0.00%   9887.64%
                              58            0      0.00%   9887.64%
                              60            0      0.00%   9887.64%
                              62            0      0.00%   9887.64%
                              64            0      0.00%   9887.64%
                              66            0      0.00%   9887.64%
                              68            0      0.00%   9887.64%
                              70            0      0.00%   9887.64%
                              72            0      0.00%   9887.64%
                              74            0      0.00%   9887.64%
                              76            0      0.00%   9887.64%
                              78            0      0.00%   9887.64%
                              80            0      0.00%   9887.64%
                              82            0      0.00%   9887.64%
                              84            1     18.73%   9906.37%
                              86            0      0.00%   9906.37%
                              88            1     18.73%   9925.09%
                              90            0      0.00%   9925.09%
                              92            0      0.00%   9925.09%
                              94            0      0.00%   9925.09%
                              96            0      0.00%   9925.09%
                              98            1     18.73%   9943.82%
cpu.IQ:residence:FloatCvt.overflows                 3                      
cpu.IQ:residence:FloatCvt.max_value               139                      
cpu.IQ:residence:FloatCvt.end_dist

cpu.IQ:residence:FloatMult.start_dist                          # cycles from dispatch to issue
cpu.IQ:residence:FloatMult.samples                  4                      
cpu.IQ:residence:FloatMult.min_value                6                      
                               0            0      0.00%      0.00%
                               2            0      0.00%      0.00%
                               4            0      0.00%      0.00%
                               6            4  10000.00%  10000.00%
                               8            0      0.00%  10000.00%
                              10            0      0.00%  10000.00%
                              12            0      0.00%  10000.00%
                              14            0      0.00%  10000.00%
                              16            0      0.00%  10000.00%
                              18            0      0.00%  10000.00%
                              20            0      0.00%  10000.00%
                              22            0      0.00%  10000.00%
                              24            0      0.00%  10000.00%
                              26            0      0.00%  10000.00%
                              28            0      0.00%  10000.00%
                              30            0      0.00%  10000.00%
                              32            0      0.00%  10000.00%
                              34            0      0.00%  10000.00%
                              36            0      0.00%  10000.00%
                              38            0      0.00%  10000.00%
                              40            0      0.00%  10000.00%
                              42            0      0.00%  10000.00%
                              44            0      0.00%  10000.00%
                              46            0      0.00%  10000.00%
                              48            0      0.00%  10000.00%
                              50            0      0.00%  10000.00%
                              52            0      0.00%  10000.00%
                              54            0      0.00%  10000.00%
                              56            0      0.00%  10000.00%
                              58            0      0.00%  10000.00%
                              60            0      0.00%  10000.00%
                              62            0      0.00%  10000.00%
                              64            0      0.00%  10000.00%
                              66            0      0.00%  10000.00%
                              68            0      0.00%  10000.00%
                              70            0      0.00%  10000.00%
                              72            0      0.00%  10000.00%
                              74            0      0.00%  10000.00%
                              76            0      0.00%  10000.00%
                              78            0      0.00%  10000.00%
                              80            0      0.00%  10000.00%
                              82            0      0.00%  10000.00%
                              84            0      0.00%  10000.00%
                              86            0      0.00%  10000.00%
                              88            0      0.00%  10000.00%
                              90            0      0.00%  10000.00%
                              92            0      0.00%  10000.00%
                              94            0      0.00%  10000.00%
                              96            0      0.00%  10000.00%
                              98            0      0.00%  10000.00%
cpu.IQ:residence:FloatMult.max_value                7                      
cpu.IQ:residence:FloatMult.end_dist

cpu.IQ:residence:FloatDiv.start_dist                           # cycles from dispatch to issue
cpu.IQ:residence:FloatDiv.samples                  99                      
cpu.IQ:residence:FloatDiv.min_value                 1                      
                               0            1    101.01%    101.01%
                               2            1    101.01%    202.02%
                               4            6    606.06%    808.08%
                               6           11   1111.11%   1919.19%
                               8            2    202.02%   2121.21%
                              10            9    909.09%   3030.30%
                              12           28   2828.28%   5858.59%
                              14           33   3333.33%   9191.92%
                              16            1    101.01%   9292.93%
                              18            6    606.06%   9898.99%
                              20            0      0.00%   9898.99%
                              22            0      0.00%   9898.99%
                              24            1    101.01%  10000.00%
                              26            0      0.00%  10000.00%
                              28            0      0.00%  10000.00%
                              30            0      0.00%  10000.00%
                              32            0      0.00%  10000.00%
                              34            0      0.00%  10000.00%
                              36            0      0.00%  10000.00%
                              38            0      0.00%  10000.00%
                              40            0      0.00%  10000.00%
                              42            0      0.00%  10000.00%
                              44            0      0.00%  10000.00%
                              46            0      0.00%  10000.00%
                              48            0      0.00%  10000.00%
                              50            0      0.00%  10000.00%
                              52            0      0.00%  10000.00%
                              54            0      0.00%  10000.00%
                              56            0      0.00%  10000.00%
                              58            0      0.00%  10000.00%
                              60            0      0.00%  10000.00%
                              62            0      0.00%  10000.00%
                              64            0      0.00%  10000.00%
                              66            0      0.00%  10000.00%
                              68            0      0.00%  10000.00%
                              70            0      0.00%  10000.00%
                              72            0      0.00%  10000.00%
                              74            0      0.00%  10000.00%
                              76            0      0.00%  10000.00%
                              78            0      0.00%  10000.00%
                              80            0      0.00%  10000.00%
[...]
cpu.l2.soft_prefetch_mshr_full_0                    0                       # number of mshr full events for SW prefetching instrutions
cpu.l2.soft_prefetch_mshr_full_1                    0                       # number of mshr full events for SW prefetching instrutions
cpu.l2.soft_prefetch_mshr_full_2                    0                       # number of mshr full events for SW prefetching instrutions
cpu.l2.soft_prefetch_mshr_full_3                    0                       # number of mshr full events for SW prefetching instrutions
cpu.l2.tagsinuse                         13805.782916                       # Cycle average of tags in use
cpu.l2.total_refs                                   0                       # Total number of references to valid blocks.
cpu.l2.warmup_cycle                                 0                       # Cycle when the warmup percentage was hit.
cpu.l2.writeback_accesses                       10382                       # number of writeback accesses(hits+misses)
cpu.l2.writeback_accesses_0                      2596                       # number of writeback accesses(hits+misses)
cpu.l2.writeback_accesses_1                      2562                       # number of writeback accesses(hits+misses)
cpu.l2.writeback_accesses_2                      2595                       # number of writeback accesses(hits+misses)
cpu.l2.writeback_accesses_3                      2629                       # number of writeback accesses(hits+misses)
cpu.l2.writeback_hits                           10136                       # number of writeback hits
cpu.l2.writeback_hits_0                          2533                       # number of writeback hits
cpu.l2.writeback_hits_1                          2502                       # number of writeback hits
cpu.l2.writeback_hits_2                          2532                       # number of writeback hits
cpu.l2.writeback_hits_3                          2569                       # number of writeback hits
cpu.l2.writeback_miss_rate                   0.023695                       # miss rate for writeback accesses
cpu.l2.writeback_miss_rate_0                 0.024268                       # miss rate for writeback accesses
cpu.l2.writeback_miss_rate_1                 0.023419                       # miss rate for writeback accesses
cpu.l2.writeback_miss_rate_2                 0.024277                       # miss rate for writeback accesses
cpu.l2.writeback_miss_rate_3                 0.022822                       # miss rate for writeback accesses
cpu.l2.writeback_misses                           246                       # number of writeback misses
cpu.l2.writeback_misses_0                          63                       # number of writeback misses
cpu.l2.writeback_misses_1                          60                       # number of writeback misses
cpu.l2.writeback_misses_2                          63                       # number of writeback misses
cpu.l2.writeback_misses_3                          60                       # number of writeback misses
cpu.l2.writeback_mshr_miss_rate              0.023695                       # mshr miss rate for writeback accesses
cpu.l2.writeback_mshr_miss_rate_0            0.024268                       # mshr miss rate for writeback accesses
cpu.l2.writeback_mshr_miss_rate_1            0.023419                       # mshr miss rate for writeback accesses
cpu.l2.writeback_mshr_miss_rate_2            0.024277                       # mshr miss rate for writeback accesses
cpu.l2.writeback_mshr_miss_rate_3            0.022822                       # mshr miss rate for writeback accesses
cpu.l2.writeback_mshr_misses                      246                       # number of writeback MSHR misses
cpu.l2.writeback_mshr_misses_0                     63                       # number of writeback MSHR misses
cpu.l2.writeback_mshr_misses_1                     60                       # number of writeback MSHR misses
cpu.l2.writeback_mshr_misses_2                     63                       # number of writeback MSHR misses
cpu.l2.writeback_mshr_misses_3                     60                       # number of writeback MSHR misses
cpu.l2.writebacks                                   0                       # number of writebacks
cpu.l2.writebacks_0                                 0                       # number of writebacks
cpu.l2.writebacks_1                                 0                       # number of writebacks
cpu.l2.writebacks_2                                 0                       # number of writebacks
cpu.l2.writebacks_3                                 0                       # number of writebacks
cpu.numCycles                                 1776507                       # number of cpu cycles simulated
cpu.toL2Bus.addr_idle_cycles                  1378731                       # number of cycles bus was idle
cpu.toL2Bus.addr_idle_fraction               0.776091                       # fraction of time addr bus was idle
cpu.toL2Bus.addr_queued                      3.113047                       # average queueing delay seen by bus request
cpu.toL2Bus.addr_queued_0                    3.109496                       # average queueing delay seen by bus request
cpu.toL2Bus.addr_queued_1                    3.109092                       # average queueing delay seen by bus request
cpu.toL2Bus.addr_queued_2                    3.120945                       # average queueing delay seen by bus request
cpu.toL2Bus.addr_queued_3                    3.113182                       # average queueing delay seen by bus request
cpu.toL2Bus.addr_queued_cycles                1238289                       # total number of queued cycles for all requests
cpu.toL2Bus.addr_queued_cycles_0               316186                       # total number of queued cycles for all requests
cpu.toL2Bus.addr_queued_cycles_1               315035                       # total number of queued cycles for all requests
cpu.toL2Bus.addr_queued_cycles_2               295644                       # total number of queued cycles for all requests
cpu.toL2Bus.addr_queued_cycles_3               311424                       # total number of queued cycles for all requests
cpu.toL2Bus.addr_requests                      397774                       # number of transmissions on bus
cpu.toL2Bus.addr_requests_0                    101684                       # number of transmissions on bus
cpu.toL2Bus.addr_requests_1                    101327                       # number of transmissions on bus
cpu.toL2Bus.addr_requests_2                     94729                       # number of transmissions on bus
cpu.toL2Bus.addr_requests_3                    100034                       # number of transmissions on bus
cpu.toL2Bus.bus_blocked                             0                       # number of times bus was blocked
cpu.toL2Bus.bus_blocked_cycles                      0                       # number of cycles bus was blocked
cpu.toL2Bus.bus_blocked_fraction                    0                       # fraction of time bus was blocked
cpu.toL2Bus.data_idle_cycles                  1378732                       # number of cycles bus was idle
cpu.toL2Bus.data_idle_fraction               0.776092                       # fraction of time data bus was idle
cpu.toL2Bus.data_queued                      1.016549                       # average queueing delay seen by bus request
cpu.toL2Bus.data_queued_0                    1.017237                       # average queueing delay seen by bus request
cpu.toL2Bus.data_queued_1                    1.016170                       # average queueing delay seen by bus request
cpu.toL2Bus.data_queued_2                    1.016628                       # average queueing delay seen by bus request
cpu.toL2Bus.data_queued_3                    1.016159                       # average queueing delay seen by bus request
cpu.toL2Bus.data_queued_cycles                 393801                       # total number of queued cycles for all requests
cpu.toL2Bus.data_queued_cycles_0               100795                       # total number of queued cycles for all requests
cpu.toL2Bus.data_queued_cycles_1               100361                       # total number of queued cycles for all requests
cpu.toL2Bus.data_queued_cycles_2                93666                       # total number of queued cycles for all requests
cpu.toL2Bus.data_queued_cycles_3                98979                       # total number of queued cycles for all requests
cpu.toL2Bus.data_requests                      387390                       # number of transmissions on bus
cpu.toL2Bus.data_requests_0                     99087                       # number of transmissions on bus
cpu.toL2Bus.data_requests_1                     98764                       # number of transmissions on bus
cpu.toL2Bus.data_requests_2                     92134                       # number of transmissions on bus
cpu.toL2Bus.data_requests_3                     97405                       # number of transmissions on bus
cpu.toL2Bus.null_grants                          1957                       # number of null grants (wasted cycles)
cpu.workload0.MainMem.page_count                    4                       # total number of pages allocated
cpu.workload0.MainMem.page_mem                     32                       # total size of memory pages allocated
cpu.workload0.MainMem.ptab_accesses           1882831                       # total page table accessess
cpu.workload0.MainMem.ptab_miss_rate           0.0067                       # first level page table miss rate
cpu.workload0.MainMem.ptab_misses               12631                       # total first level page table misses
cpu.workload0.PROG:num_syscalls                   322                       # Number of system calls
cpu.workload1.MainMem.page_count                    4                       # total number of pages allocated
cpu.workload1.MainMem.page_mem                     32                       # total size of memory pages allocated
cpu.workload1.MainMem.ptab_accesses           1900423                       # total page table accessess
cpu.workload1.MainMem.ptab_miss_rate           0.0066                       # first level page table miss rate
cpu.workload1.MainMem.ptab_misses               12504                       # total first level page table misses
cpu.workload1.PROG:num_syscalls                   322                       # Number of system calls
cpu.workload2.MainMem.page_count                    4                       # total number of pages allocated
cpu.workload2.MainMem.page_mem                     32                       # total size of memory pages allocated
cpu.workload2.MainMem.ptab_accesses           2574805                       # total page table accessess
cpu.workload2.MainMem.ptab_miss_rate           0.0070                       # first level page table miss rate
cpu.workload2.MainMem.ptab_misses               18013                       # total first level page table misses
cpu.workload2.PROG:num_syscalls                   340                       # Number of system calls
cpu.workload3.MainMem.page_count                    4                       # total number of pages allocated
cpu.workload3.MainMem.page_mem                     32                       # total size of memory pages allocated
cpu.workload3.MainMem.ptab_accesses           2082641                       # total page table accessess
cpu.workload3.MainMem.ptab_miss_rate           0.0068                       # first level page table miss rate
cpu.workload3.MainMem.ptab_misses               14187                       # total first level page table misses
cpu.workload3.PROG:num_syscalls                   324                       # Number of system calls
cpuinst_class_dist.start_dist
                   All ops ready            0      0.00%            # Operand status at dispatch
                One op not ready            0      0.00%            # Operand status at dispatch
           None rdy, mult chains            0      0.00%            # Operand status at dispatch
           None rdy, one chained            0      0.00%            # Operand status at dispatch
        None rdy, all self-timed            0      0.00%            # Operand status at dispatch
cpuinst_class_dist.end_dist
host_inst_rate                                  58808                       # Simulator instruction rate (inst/s)
host_mem_usage                                  28104                       # Number of bytes of host memory used
host_seconds                                    62.95                       # Real time elapsed on the host
host_tick_rate                                  28223                       # Simulator tick rate (ticks/s)
ram.accesses                                    18788                       # total number of accesses
ram.accesses_0                                   4575                       # total number of accesses
ram.accesses_1                                   4593                       # total number of accesses
ram.accesses_2                                   4886                       # total number of accesses
ram.accesses_3                                   4734                       # total number of accesses
ram.bytes_requested                                 0                       # total number of bytes requested
ram.bytes_requested_0                               0                       # total number of bytes requested
ram.bytes_requested_1                               0                       # total number of bytes requested
ram.bytes_requested_2                               0                       # total number of bytes requested
ram.bytes_requested_3                               0                       # total number of bytes requested
ram.bytes_sent                                      0                       # total number of bytes sent
ram.bytes_sent_0                                    0                       # total number of bytes sent
ram.bytes_sent_1                                    0                       # total number of bytes sent
ram.bytes_sent_2                                    0                       # total number of bytes sent
ram.bytes_sent_3                                    0                       # total number of bytes sent
ram.compressed_responses                            0                       # total number of accesses that are compressed
ram.compressed_responses_0                          0                       # total number of accesses that are compressed
ram.compressed_responses_1                          0                       # total number of accesses that are compressed
ram.compressed_responses_2                          0                       # total number of accesses that are compressed
ram.compressed_responses_3                          0                       # total number of accesses that are compressed
sim_freq                                    200000000                       # Frequency of simulated ticks
sim_insts                                     3701726                       # Number of instructions simulated
sim_seconds                                  0.008883                       # Number of seconds simulated
sim_ticks                                     1776506                       # Number of ticks simulated
toMemBus.addr_idle_cycles                     1757472                       # number of cycles bus was idle
toMemBus.addr_idle_fraction                  0.989286                       # fraction of time addr bus was idle
toMemBus.addr_queued                        10.716787                       # average queueing delay seen by bus request
toMemBus.addr_queued_0                      10.820546                       # average queueing delay seen by bus request
toMemBus.addr_queued_1                      10.952754                       # average queueing delay seen by bus request
toMemBus.addr_queued_2                      10.529063                       # average queueing delay seen by bus request
toMemBus.addr_queued_3                      10.581327                       # average queueing delay seen by bus request
toMemBus.addr_queued_cycles                    201347                       # total number of queued cycles for all requests
toMemBus.addr_queued_cycles_0                   49504                       # total number of queued cycles for all requests
toMemBus.addr_queued_cycles_1                   50306                       # total number of queued cycles for all requests
toMemBus.addr_queued_cycles_2                   51445                       # total number of queued cycles for all requests
toMemBus.addr_queued_cycles_3                   50092                       # total number of queued cycles for all requests
toMemBus.addr_requests                          18788                       # number of transmissions on bus
toMemBus.addr_requests_0                         4575                       # number of transmissions on bus
toMemBus.addr_requests_1                         4593                       # number of transmissions on bus
toMemBus.addr_requests_2                         4886                       # number of transmissions on bus
toMemBus.addr_requests_3                         4734                       # number of transmissions on bus
toMemBus.bus_blocked                                0                       # number of times bus was blocked
toMemBus.bus_blocked_cycles                         0                       # number of cycles bus was blocked
toMemBus.bus_blocked_fraction                       0                       # fraction of time bus was blocked
toMemBus.data_idle_cycles                     1701112                       # number of cycles bus was idle
toMemBus.data_idle_fraction                  0.957561                       # fraction of time data bus was idle
toMemBus.data_queued                         2.592331                       # average queueing delay seen by bus request
toMemBus.data_queued_0                       2.531250                       # average queueing delay seen by bus request
toMemBus.data_queued_1                       2.322744                       # average queueing delay seen by bus request
toMemBus.data_queued_2                       2.799917                       # average queueing delay seen by bus request
toMemBus.data_queued_3                       2.698545                       # average queueing delay seen by bus request
toMemBus.data_queued_cycles                     48067                       # total number of queued cycles for all requests
toMemBus.data_queued_cycles_0                   11421                       # total number of queued cycles for all requests
toMemBus.data_queued_cycles_1                   10529                       # total number of queued cycles for all requests
toMemBus.data_queued_cycles_2                   13504                       # total number of queued cycles for all requests
toMemBus.data_queued_cycles_3                   12613                       # total number of queued cycles for all requests
toMemBus.data_requests                          18542                       # number of transmissions on bus
toMemBus.data_requests_0                         4512                       # number of transmissions on bus
toMemBus.data_requests_1                         4533                       # number of transmissions on bus
toMemBus.data_requests_2                         4823                       # number of transmissions on bus
toMemBus.data_requests_3                         4674                       # number of transmissions on bus
toMemBus.null_grants                                0                       # number of null grants (wasted cycles)

---------- End Simulation Statistics   ----------
